* Created at 2020-02-19 16:21:56.163955
* by Jules' modified OpenEarth Tools 
* Git url: https://github.com/JulesBlm/Delft3D-Python-Tools/Jules/grid.py $
* $Revision:  $
Coordinate System = Cartesian
      131      181
 0 0 0
 ETA=    1   0.00000000000000000e+00   2.00000000000000000e+02   4.00000000000000000e+02   6.00000000000000000e+02   8.00000000000000000e+02
             1.00000000000000000e+03   1.20000000000000000e+03   1.40000000000000000e+03   1.60000000000000000e+03   1.80000000000000000e+03
             2.00000000000000000e+03   2.20000000000000000e+03   2.40000000000000000e+03   2.60000000000000000e+03   2.80000000000000000e+03
             3.00000000000000000e+03   3.20000000000000000e+03   3.40000000000000000e+03   3.60000000000000000e+03   3.80000000000000000e+03
             4.00000000000000000e+03   4.20000000000000000e+03   4.40000000000000000e+03   4.60000000000000000e+03   4.80000000000000000e+03
             5.00000000000000000e+03   5.20000000000000000e+03   5.40000000000000000e+03   5.60000000000000000e+03   5.80000000000000000e+03
             6.00000000000000000e+03   6.20000000000000000e+03   6.40000000000000000e+03   6.60000000000000000e+03   6.80000000000000000e+03
             7.00000000000000000e+03   7.20000000000000000e+03   7.40000000000000000e+03   7.60000000000000000e+03   7.80000000000000000e+03
             8.00000000000000000e+03   8.20000000000000000e+03   8.40000000000000000e+03   8.60000000000000000e+03   8.80000000000000000e+03
             9.00000000000000000e+03   9.20000000000000000e+03   9.40000000000000000e+03   9.60000000000000000e+03   9.80000000000000000e+03
             1.00000000000000000e+04   1.02000000000000000e+04   1.04000000000000000e+04   1.06000000000000000e+04   1.08000000000000000e+04
             1.10000000000000000e+04   1.12000000000000000e+04   1.14000000000000000e+04   1.16000000000000000e+04   1.18000000000000000e+04
             1.20000000000000000e+04   1.22000000000000000e+04   1.24000000000000000e+04   1.26000000000000000e+04   1.28000000000000000e+04
             1.30000000000000000e+04   1.32000000000000000e+04   1.34000000000000000e+04   1.36000000000000000e+04   1.38000000000000000e+04
             1.40000000000000000e+04   1.42000000000000000e+04   1.44000000000000000e+04   1.46000000000000000e+04   1.48000000000000000e+04
             1.50000000000000000e+04   1.52000000000000000e+04   1.54000000000000000e+04   1.56000000000000000e+04   1.58000000000000000e+04
             1.60000000000000000e+04   1.62000000000000000e+04   1.64000000000000000e+04   1.66000000000000000e+04   1.68000000000000000e+04
             1.70000000000000000e+04   1.72000000000000000e+04   1.74000000000000000e+04   1.76000000000000000e+04   1.78000000000000000e+04
             1.80000000000000000e+04   1.82000000000000000e+04   1.84000000000000000e+04   1.86000000000000000e+04   1.88000000000000000e+04
             1.90000000000000000e+04   1.92000000000000000e+04   1.94000000000000000e+04   1.96000000000000000e+04   1.98000000000000000e+04
             2.00000000000000000e+04   2.02000000000000000e+04   2.04000000000000000e+04   2.06000000000000000e+04   2.08000000000000000e+04
             2.10000000000000000e+04   2.12000000000000000e+04   2.14000000000000000e+04   2.16000000000000000e+04   2.18000000000000000e+04
             2.20000000000000000e+04   2.22000000000000000e+04   2.24000000000000000e+04   2.26000000000000000e+04   2.28000000000000000e+04
             2.30000000000000000e+04   2.32000000000000000e+04   2.34000000000000000e+04   2.36000000000000000e+04   2.38000000000000000e+04
             2.40000000000000000e+04   2.42000000000000000e+04   2.44000000000000000e+04   2.46000000000000000e+04   2.48000000000000000e+04
             2.50000000000000000e+04   2.52000000000000000e+04   2.54000000000000000e+04   2.56000000000000000e+04   2.58000000000000000e+04
             2.60000000000000000e+04
 ETA=    2   0.00000000000000000e+00   2.00000000000000000e+02   4.00000000000000000e+02   6.00000000000000000e+02   8.00000000000000000e+02
             1.00000000000000000e+03   1.20000000000000000e+03   1.40000000000000000e+03   1.60000000000000000e+03   1.80000000000000000e+03
             2.00000000000000000e+03   2.20000000000000000e+03   2.40000000000000000e+03   2.60000000000000000e+03   2.80000000000000000e+03
             3.00000000000000000e+03   3.20000000000000000e+03   3.40000000000000000e+03   3.60000000000000000e+03   3.80000000000000000e+03
             4.00000000000000000e+03   4.20000000000000000e+03   4.40000000000000000e+03   4.60000000000000000e+03   4.80000000000000000e+03
             5.00000000000000000e+03   5.20000000000000000e+03   5.40000000000000000e+03   5.60000000000000000e+03   5.80000000000000000e+03
             6.00000000000000000e+03   6.20000000000000000e+03   6.40000000000000000e+03   6.60000000000000000e+03   6.80000000000000000e+03
             7.00000000000000000e+03   7.20000000000000000e+03   7.40000000000000000e+03   7.60000000000000000e+03   7.80000000000000000e+03
             8.00000000000000000e+03   8.20000000000000000e+03   8.40000000000000000e+03   8.60000000000000000e+03   8.80000000000000000e+03
             9.00000000000000000e+03   9.20000000000000000e+03   9.40000000000000000e+03   9.60000000000000000e+03   9.80000000000000000e+03
             1.00000000000000000e+04   1.02000000000000000e+04   1.04000000000000000e+04   1.06000000000000000e+04   1.08000000000000000e+04
             1.10000000000000000e+04   1.12000000000000000e+04   1.14000000000000000e+04   1.16000000000000000e+04   1.18000000000000000e+04
             1.20000000000000000e+04   1.22000000000000000e+04   1.24000000000000000e+04   1.26000000000000000e+04   1.28000000000000000e+04
             1.30000000000000000e+04   1.32000000000000000e+04   1.34000000000000000e+04   1.36000000000000000e+04   1.38000000000000000e+04
             1.40000000000000000e+04   1.42000000000000000e+04   1.44000000000000000e+04   1.46000000000000000e+04   1.48000000000000000e+04
             1.50000000000000000e+04   1.52000000000000000e+04   1.54000000000000000e+04   1.56000000000000000e+04   1.58000000000000000e+04
             1.60000000000000000e+04   1.62000000000000000e+04   1.64000000000000000e+04   1.66000000000000000e+04   1.68000000000000000e+04
             1.70000000000000000e+04   1.72000000000000000e+04   1.74000000000000000e+04   1.76000000000000000e+04   1.78000000000000000e+04
             1.80000000000000000e+04   1.82000000000000000e+04   1.84000000000000000e+04   1.86000000000000000e+04   1.88000000000000000e+04
             1.90000000000000000e+04   1.92000000000000000e+04   1.94000000000000000e+04   1.96000000000000000e+04   1.98000000000000000e+04
             2.00000000000000000e+04   2.02000000000000000e+04   2.04000000000000000e+04   2.06000000000000000e+04   2.08000000000000000e+04
             2.10000000000000000e+04   2.12000000000000000e+04   2.14000000000000000e+04   2.16000000000000000e+04   2.18000000000000000e+04
             2.20000000000000000e+04   2.22000000000000000e+04   2.24000000000000000e+04   2.26000000000000000e+04   2.28000000000000000e+04
             2.30000000000000000e+04   2.32000000000000000e+04   2.34000000000000000e+04   2.36000000000000000e+04   2.38000000000000000e+04
             2.40000000000000000e+04   2.42000000000000000e+04   2.44000000000000000e+04   2.46000000000000000e+04   2.48000000000000000e+04
             2.50000000000000000e+04   2.52000000000000000e+04   2.54000000000000000e+04   2.56000000000000000e+04   2.58000000000000000e+04
             2.60000000000000000e+04
 ETA=    3   0.00000000000000000e+00   2.00000000000000000e+02   4.00000000000000000e+02   6.00000000000000000e+02   8.00000000000000000e+02
             1.00000000000000000e+03   1.20000000000000000e+03   1.40000000000000000e+03   1.60000000000000000e+03   1.80000000000000000e+03
             2.00000000000000000e+03   2.20000000000000000e+03   2.40000000000000000e+03   2.60000000000000000e+03   2.80000000000000000e+03
             3.00000000000000000e+03   3.20000000000000000e+03   3.40000000000000000e+03   3.60000000000000000e+03   3.80000000000000000e+03
             4.00000000000000000e+03   4.20000000000000000e+03   4.40000000000000000e+03   4.60000000000000000e+03   4.80000000000000000e+03
             5.00000000000000000e+03   5.20000000000000000e+03   5.40000000000000000e+03   5.60000000000000000e+03   5.80000000000000000e+03
             6.00000000000000000e+03   6.20000000000000000e+03   6.40000000000000000e+03   6.60000000000000000e+03   6.80000000000000000e+03
             7.00000000000000000e+03   7.20000000000000000e+03   7.40000000000000000e+03   7.60000000000000000e+03   7.80000000000000000e+03
             8.00000000000000000e+03   8.20000000000000000e+03   8.40000000000000000e+03   8.60000000000000000e+03   8.80000000000000000e+03
             9.00000000000000000e+03   9.20000000000000000e+03   9.40000000000000000e+03   9.60000000000000000e+03   9.80000000000000000e+03
             1.00000000000000000e+04   1.02000000000000000e+04   1.04000000000000000e+04   1.06000000000000000e+04   1.08000000000000000e+04
             1.10000000000000000e+04   1.12000000000000000e+04   1.14000000000000000e+04   1.16000000000000000e+04   1.18000000000000000e+04
             1.20000000000000000e+04   1.22000000000000000e+04   1.24000000000000000e+04   1.26000000000000000e+04   1.28000000000000000e+04
             1.30000000000000000e+04   1.32000000000000000e+04   1.34000000000000000e+04   1.36000000000000000e+04   1.38000000000000000e+04
             1.40000000000000000e+04   1.42000000000000000e+04   1.44000000000000000e+04   1.46000000000000000e+04   1.48000000000000000e+04
             1.50000000000000000e+04   1.52000000000000000e+04   1.54000000000000000e+04   1.56000000000000000e+04   1.58000000000000000e+04
             1.60000000000000000e+04   1.62000000000000000e+04   1.64000000000000000e+04   1.66000000000000000e+04   1.68000000000000000e+04
             1.70000000000000000e+04   1.72000000000000000e+04   1.74000000000000000e+04   1.76000000000000000e+04   1.78000000000000000e+04
             1.80000000000000000e+04   1.82000000000000000e+04   1.84000000000000000e+04   1.86000000000000000e+04   1.88000000000000000e+04
             1.90000000000000000e+04   1.92000000000000000e+04   1.94000000000000000e+04   1.96000000000000000e+04   1.98000000000000000e+04
             2.00000000000000000e+04   2.02000000000000000e+04   2.04000000000000000e+04   2.06000000000000000e+04   2.08000000000000000e+04
             2.10000000000000000e+04   2.12000000000000000e+04   2.14000000000000000e+04   2.16000000000000000e+04   2.18000000000000000e+04
             2.20000000000000000e+04   2.22000000000000000e+04   2.24000000000000000e+04   2.26000000000000000e+04   2.28000000000000000e+04
             2.30000000000000000e+04   2.32000000000000000e+04   2.34000000000000000e+04   2.36000000000000000e+04   2.38000000000000000e+04
             2.40000000000000000e+04   2.42000000000000000e+04   2.44000000000000000e+04   2.46000000000000000e+04   2.48000000000000000e+04
             2.50000000000000000e+04   2.52000000000000000e+04   2.54000000000000000e+04   2.56000000000000000e+04   2.58000000000000000e+04
             2.60000000000000000e+04
 ETA=    4   0.00000000000000000e+00   2.00000000000000000e+02   4.00000000000000000e+02   6.00000000000000000e+02   8.00000000000000000e+02
             1.00000000000000000e+03   1.20000000000000000e+03   1.40000000000000000e+03   1.60000000000000000e+03   1.80000000000000000e+03
             2.00000000000000000e+03   2.20000000000000000e+03   2.40000000000000000e+03   2.60000000000000000e+03   2.80000000000000000e+03
             3.00000000000000000e+03   3.20000000000000000e+03   3.40000000000000000e+03   3.60000000000000000e+03   3.80000000000000000e+03
             4.00000000000000000e+03   4.20000000000000000e+03   4.40000000000000000e+03   4.60000000000000000e+03   4.80000000000000000e+03
             5.00000000000000000e+03   5.20000000000000000e+03   5.40000000000000000e+03   5.60000000000000000e+03   5.80000000000000000e+03
             6.00000000000000000e+03   6.20000000000000000e+03   6.40000000000000000e+03   6.60000000000000000e+03   6.80000000000000000e+03
             7.00000000000000000e+03   7.20000000000000000e+03   7.40000000000000000e+03   7.60000000000000000e+03   7.80000000000000000e+03
             8.00000000000000000e+03   8.20000000000000000e+03   8.40000000000000000e+03   8.60000000000000000e+03   8.80000000000000000e+03
             9.00000000000000000e+03   9.20000000000000000e+03   9.40000000000000000e+03   9.60000000000000000e+03   9.80000000000000000e+03
             1.00000000000000000e+04   1.02000000000000000e+04   1.04000000000000000e+04   1.06000000000000000e+04   1.08000000000000000e+04
             1.10000000000000000e+04   1.12000000000000000e+04   1.14000000000000000e+04   1.16000000000000000e+04   1.18000000000000000e+04
             1.20000000000000000e+04   1.22000000000000000e+04   1.24000000000000000e+04   1.26000000000000000e+04   1.28000000000000000e+04
             1.30000000000000000e+04   1.32000000000000000e+04   1.34000000000000000e+04   1.36000000000000000e+04   1.38000000000000000e+04
             1.40000000000000000e+04   1.42000000000000000e+04   1.44000000000000000e+04   1.46000000000000000e+04   1.48000000000000000e+04
             1.50000000000000000e+04   1.52000000000000000e+04   1.54000000000000000e+04   1.56000000000000000e+04   1.58000000000000000e+04
             1.60000000000000000e+04   1.62000000000000000e+04   1.64000000000000000e+04   1.66000000000000000e+04   1.68000000000000000e+04
             1.70000000000000000e+04   1.72000000000000000e+04   1.74000000000000000e+04   1.76000000000000000e+04   1.78000000000000000e+04
             1.80000000000000000e+04   1.82000000000000000e+04   1.84000000000000000e+04   1.86000000000000000e+04   1.88000000000000000e+04
             1.90000000000000000e+04   1.92000000000000000e+04   1.94000000000000000e+04   1.96000000000000000e+04   1.98000000000000000e+04
             2.00000000000000000e+04   2.02000000000000000e+04   2.04000000000000000e+04   2.06000000000000000e+04   2.08000000000000000e+04
             2.10000000000000000e+04   2.12000000000000000e+04   2.14000000000000000e+04   2.16000000000000000e+04   2.18000000000000000e+04
             2.20000000000000000e+04   2.22000000000000000e+04   2.24000000000000000e+04   2.26000000000000000e+04   2.28000000000000000e+04
             2.30000000000000000e+04   2.32000000000000000e+04   2.34000000000000000e+04   2.36000000000000000e+04   2.38000000000000000e+04
             2.40000000000000000e+04   2.42000000000000000e+04   2.44000000000000000e+04   2.46000000000000000e+04   2.48000000000000000e+04
             2.50000000000000000e+04   2.52000000000000000e+04   2.54000000000000000e+04   2.56000000000000000e+04   2.58000000000000000e+04
             2.60000000000000000e+04
 ETA=    5   0.00000000000000000e+00   2.00000000000000000e+02   4.00000000000000000e+02   6.00000000000000000e+02   8.00000000000000000e+02
             1.00000000000000000e+03   1.20000000000000000e+03   1.40000000000000000e+03   1.60000000000000000e+03   1.80000000000000000e+03
             2.00000000000000000e+03   2.20000000000000000e+03   2.40000000000000000e+03   2.60000000000000000e+03   2.80000000000000000e+03
             3.00000000000000000e+03   3.20000000000000000e+03   3.40000000000000000e+03   3.60000000000000000e+03   3.80000000000000000e+03
             4.00000000000000000e+03   4.20000000000000000e+03   4.40000000000000000e+03   4.60000000000000000e+03   4.80000000000000000e+03
             5.00000000000000000e+03   5.20000000000000000e+03   5.40000000000000000e+03   5.60000000000000000e+03   5.80000000000000000e+03
             6.00000000000000000e+03   6.20000000000000000e+03   6.40000000000000000e+03   6.60000000000000000e+03   6.80000000000000000e+03
             7.00000000000000000e+03   7.20000000000000000e+03   7.40000000000000000e+03   7.60000000000000000e+03   7.80000000000000000e+03
             8.00000000000000000e+03   8.20000000000000000e+03   8.40000000000000000e+03   8.60000000000000000e+03   8.80000000000000000e+03
             9.00000000000000000e+03   9.20000000000000000e+03   9.40000000000000000e+03   9.60000000000000000e+03   9.80000000000000000e+03
             1.00000000000000000e+04   1.02000000000000000e+04   1.04000000000000000e+04   1.06000000000000000e+04   1.08000000000000000e+04
             1.10000000000000000e+04   1.12000000000000000e+04   1.14000000000000000e+04   1.16000000000000000e+04   1.18000000000000000e+04
             1.20000000000000000e+04   1.22000000000000000e+04   1.24000000000000000e+04   1.26000000000000000e+04   1.28000000000000000e+04
             1.30000000000000000e+04   1.32000000000000000e+04   1.34000000000000000e+04   1.36000000000000000e+04   1.38000000000000000e+04
             1.40000000000000000e+04   1.42000000000000000e+04   1.44000000000000000e+04   1.46000000000000000e+04   1.48000000000000000e+04
             1.50000000000000000e+04   1.52000000000000000e+04   1.54000000000000000e+04   1.56000000000000000e+04   1.58000000000000000e+04
             1.60000000000000000e+04   1.62000000000000000e+04   1.64000000000000000e+04   1.66000000000000000e+04   1.68000000000000000e+04
             1.70000000000000000e+04   1.72000000000000000e+04   1.74000000000000000e+04   1.76000000000000000e+04   1.78000000000000000e+04
             1.80000000000000000e+04   1.82000000000000000e+04   1.84000000000000000e+04   1.86000000000000000e+04   1.88000000000000000e+04
             1.90000000000000000e+04   1.92000000000000000e+04   1.94000000000000000e+04   1.96000000000000000e+04   1.98000000000000000e+04
             2.00000000000000000e+04   2.02000000000000000e+04   2.04000000000000000e+04   2.06000000000000000e+04   2.08000000000000000e+04
             2.10000000000000000e+04   2.12000000000000000e+04   2.14000000000000000e+04   2.16000000000000000e+04   2.18000000000000000e+04
             2.20000000000000000e+04   2.22000000000000000e+04   2.24000000000000000e+04   2.26000000000000000e+04   2.28000000000000000e+04
             2.30000000000000000e+04   2.32000000000000000e+04   2.34000000000000000e+04   2.36000000000000000e+04   2.38000000000000000e+04
             2.40000000000000000e+04   2.42000000000000000e+04   2.44000000000000000e+04   2.46000000000000000e+04   2.48000000000000000e+04
             2.50000000000000000e+04   2.52000000000000000e+04   2.54000000000000000e+04   2.56000000000000000e+04   2.58000000000000000e+04
             2.60000000000000000e+04
 ETA=    6   0.00000000000000000e+00   2.00000000000000000e+02   4.00000000000000000e+02   6.00000000000000000e+02   8.00000000000000000e+02
             1.00000000000000000e+03   1.20000000000000000e+03   1.40000000000000000e+03   1.60000000000000000e+03   1.80000000000000000e+03
             2.00000000000000000e+03   2.20000000000000000e+03   2.40000000000000000e+03   2.60000000000000000e+03   2.80000000000000000e+03
             3.00000000000000000e+03   3.20000000000000000e+03   3.40000000000000000e+03   3.60000000000000000e+03   3.80000000000000000e+03
             4.00000000000000000e+03   4.20000000000000000e+03   4.40000000000000000e+03   4.60000000000000000e+03   4.80000000000000000e+03
             5.00000000000000000e+03   5.20000000000000000e+03   5.40000000000000000e+03   5.60000000000000000e+03   5.80000000000000000e+03
             6.00000000000000000e+03   6.20000000000000000e+03   6.40000000000000000e+03   6.60000000000000000e+03   6.80000000000000000e+03
             7.00000000000000000e+03   7.20000000000000000e+03   7.40000000000000000e+03   7.60000000000000000e+03   7.80000000000000000e+03
             8.00000000000000000e+03   8.20000000000000000e+03   8.40000000000000000e+03   8.60000000000000000e+03   8.80000000000000000e+03
             9.00000000000000000e+03   9.20000000000000000e+03   9.40000000000000000e+03   9.60000000000000000e+03   9.80000000000000000e+03
             1.00000000000000000e+04   1.02000000000000000e+04   1.04000000000000000e+04   1.06000000000000000e+04   1.08000000000000000e+04
             1.10000000000000000e+04   1.12000000000000000e+04   1.14000000000000000e+04   1.16000000000000000e+04   1.18000000000000000e+04
             1.20000000000000000e+04   1.22000000000000000e+04   1.24000000000000000e+04   1.26000000000000000e+04   1.28000000000000000e+04
             1.30000000000000000e+04   1.32000000000000000e+04   1.34000000000000000e+04   1.36000000000000000e+04   1.38000000000000000e+04
             1.40000000000000000e+04   1.42000000000000000e+04   1.44000000000000000e+04   1.46000000000000000e+04   1.48000000000000000e+04
             1.50000000000000000e+04   1.52000000000000000e+04   1.54000000000000000e+04   1.56000000000000000e+04   1.58000000000000000e+04
             1.60000000000000000e+04   1.62000000000000000e+04   1.64000000000000000e+04   1.66000000000000000e+04   1.68000000000000000e+04
             1.70000000000000000e+04   1.72000000000000000e+04   1.74000000000000000e+04   1.76000000000000000e+04   1.78000000000000000e+04
             1.80000000000000000e+04   1.82000000000000000e+04   1.84000000000000000e+04   1.86000000000000000e+04   1.88000000000000000e+04
             1.90000000000000000e+04   1.92000000000000000e+04   1.94000000000000000e+04   1.96000000000000000e+04   1.98000000000000000e+04
             2.00000000000000000e+04   2.02000000000000000e+04   2.04000000000000000e+04   2.06000000000000000e+04   2.08000000000000000e+04
             2.10000000000000000e+04   2.12000000000000000e+04   2.14000000000000000e+04   2.16000000000000000e+04   2.18000000000000000e+04
             2.20000000000000000e+04   2.22000000000000000e+04   2.24000000000000000e+04   2.26000000000000000e+04   2.28000000000000000e+04
             2.30000000000000000e+04   2.32000000000000000e+04   2.34000000000000000e+04   2.36000000000000000e+04   2.38000000000000000e+04
             2.40000000000000000e+04   2.42000000000000000e+04   2.44000000000000000e+04   2.46000000000000000e+04   2.48000000000000000e+04
             2.50000000000000000e+04   2.52000000000000000e+04   2.54000000000000000e+04   2.56000000000000000e+04   2.58000000000000000e+04
             2.60000000000000000e+04
 ETA=    7   0.00000000000000000e+00   2.00000000000000000e+02   4.00000000000000000e+02   6.00000000000000000e+02   8.00000000000000000e+02
             1.00000000000000000e+03   1.20000000000000000e+03   1.40000000000000000e+03   1.60000000000000000e+03   1.80000000000000000e+03
             2.00000000000000000e+03   2.20000000000000000e+03   2.40000000000000000e+03   2.60000000000000000e+03   2.80000000000000000e+03
             3.00000000000000000e+03   3.20000000000000000e+03   3.40000000000000000e+03   3.60000000000000000e+03   3.80000000000000000e+03
             4.00000000000000000e+03   4.20000000000000000e+03   4.40000000000000000e+03   4.60000000000000000e+03   4.80000000000000000e+03
             5.00000000000000000e+03   5.20000000000000000e+03   5.40000000000000000e+03   5.60000000000000000e+03   5.80000000000000000e+03
             6.00000000000000000e+03   6.20000000000000000e+03   6.40000000000000000e+03   6.60000000000000000e+03   6.80000000000000000e+03
             7.00000000000000000e+03   7.20000000000000000e+03   7.40000000000000000e+03   7.60000000000000000e+03   7.80000000000000000e+03
             8.00000000000000000e+03   8.20000000000000000e+03   8.40000000000000000e+03   8.60000000000000000e+03   8.80000000000000000e+03
             9.00000000000000000e+03   9.20000000000000000e+03   9.40000000000000000e+03   9.60000000000000000e+03   9.80000000000000000e+03
             1.00000000000000000e+04   1.02000000000000000e+04   1.04000000000000000e+04   1.06000000000000000e+04   1.08000000000000000e+04
             1.10000000000000000e+04   1.12000000000000000e+04   1.14000000000000000e+04   1.16000000000000000e+04   1.18000000000000000e+04
             1.20000000000000000e+04   1.22000000000000000e+04   1.24000000000000000e+04   1.26000000000000000e+04   1.28000000000000000e+04
             1.30000000000000000e+04   1.32000000000000000e+04   1.34000000000000000e+04   1.36000000000000000e+04   1.38000000000000000e+04
             1.40000000000000000e+04   1.42000000000000000e+04   1.44000000000000000e+04   1.46000000000000000e+04   1.48000000000000000e+04
             1.50000000000000000e+04   1.52000000000000000e+04   1.54000000000000000e+04   1.56000000000000000e+04   1.58000000000000000e+04
             1.60000000000000000e+04   1.62000000000000000e+04   1.64000000000000000e+04   1.66000000000000000e+04   1.68000000000000000e+04
             1.70000000000000000e+04   1.72000000000000000e+04   1.74000000000000000e+04   1.76000000000000000e+04   1.78000000000000000e+04
             1.80000000000000000e+04   1.82000000000000000e+04   1.84000000000000000e+04   1.86000000000000000e+04   1.88000000000000000e+04
             1.90000000000000000e+04   1.92000000000000000e+04   1.94000000000000000e+04   1.96000000000000000e+04   1.98000000000000000e+04
             2.00000000000000000e+04   2.02000000000000000e+04   2.04000000000000000e+04   2.06000000000000000e+04   2.08000000000000000e+04
             2.10000000000000000e+04   2.12000000000000000e+04   2.14000000000000000e+04   2.16000000000000000e+04   2.18000000000000000e+04
             2.20000000000000000e+04   2.22000000000000000e+04   2.24000000000000000e+04   2.26000000000000000e+04   2.28000000000000000e+04
             2.30000000000000000e+04   2.32000000000000000e+04   2.34000000000000000e+04   2.36000000000000000e+04   2.38000000000000000e+04
             2.40000000000000000e+04   2.42000000000000000e+04   2.44000000000000000e+04   2.46000000000000000e+04   2.48000000000000000e+04
             2.50000000000000000e+04   2.52000000000000000e+04   2.54000000000000000e+04   2.56000000000000000e+04   2.58000000000000000e+04
             2.60000000000000000e+04
 ETA=    8   0.00000000000000000e+00   2.00000000000000000e+02   4.00000000000000000e+02   6.00000000000000000e+02   8.00000000000000000e+02
             1.00000000000000000e+03   1.20000000000000000e+03   1.40000000000000000e+03   1.60000000000000000e+03   1.80000000000000000e+03
             2.00000000000000000e+03   2.20000000000000000e+03   2.40000000000000000e+03   2.60000000000000000e+03   2.80000000000000000e+03
             3.00000000000000000e+03   3.20000000000000000e+03   3.40000000000000000e+03   3.60000000000000000e+03   3.80000000000000000e+03
             4.00000000000000000e+03   4.20000000000000000e+03   4.40000000000000000e+03   4.60000000000000000e+03   4.80000000000000000e+03
             5.00000000000000000e+03   5.20000000000000000e+03   5.40000000000000000e+03   5.60000000000000000e+03   5.80000000000000000e+03
             6.00000000000000000e+03   6.20000000000000000e+03   6.40000000000000000e+03   6.60000000000000000e+03   6.80000000000000000e+03
             7.00000000000000000e+03   7.20000000000000000e+03   7.40000000000000000e+03   7.60000000000000000e+03   7.80000000000000000e+03
             8.00000000000000000e+03   8.20000000000000000e+03   8.40000000000000000e+03   8.60000000000000000e+03   8.80000000000000000e+03
             9.00000000000000000e+03   9.20000000000000000e+03   9.40000000000000000e+03   9.60000000000000000e+03   9.80000000000000000e+03
             1.00000000000000000e+04   1.02000000000000000e+04   1.04000000000000000e+04   1.06000000000000000e+04   1.08000000000000000e+04
             1.10000000000000000e+04   1.12000000000000000e+04   1.14000000000000000e+04   1.16000000000000000e+04   1.18000000000000000e+04
             1.20000000000000000e+04   1.22000000000000000e+04   1.24000000000000000e+04   1.26000000000000000e+04   1.28000000000000000e+04
             1.30000000000000000e+04   1.32000000000000000e+04   1.34000000000000000e+04   1.36000000000000000e+04   1.38000000000000000e+04
             1.40000000000000000e+04   1.42000000000000000e+04   1.44000000000000000e+04   1.46000000000000000e+04   1.48000000000000000e+04
             1.50000000000000000e+04   1.52000000000000000e+04   1.54000000000000000e+04   1.56000000000000000e+04   1.58000000000000000e+04
             1.60000000000000000e+04   1.62000000000000000e+04   1.64000000000000000e+04   1.66000000000000000e+04   1.68000000000000000e+04
             1.70000000000000000e+04   1.72000000000000000e+04   1.74000000000000000e+04   1.76000000000000000e+04   1.78000000000000000e+04
             1.80000000000000000e+04   1.82000000000000000e+04   1.84000000000000000e+04   1.86000000000000000e+04   1.88000000000000000e+04
             1.90000000000000000e+04   1.92000000000000000e+04   1.94000000000000000e+04   1.96000000000000000e+04   1.98000000000000000e+04
             2.00000000000000000e+04   2.02000000000000000e+04   2.04000000000000000e+04   2.06000000000000000e+04   2.08000000000000000e+04
             2.10000000000000000e+04   2.12000000000000000e+04   2.14000000000000000e+04   2.16000000000000000e+04   2.18000000000000000e+04
             2.20000000000000000e+04   2.22000000000000000e+04   2.24000000000000000e+04   2.26000000000000000e+04   2.28000000000000000e+04
             2.30000000000000000e+04   2.32000000000000000e+04   2.34000000000000000e+04   2.36000000000000000e+04   2.38000000000000000e+04
             2.40000000000000000e+04   2.42000000000000000e+04   2.44000000000000000e+04   2.46000000000000000e+04   2.48000000000000000e+04
             2.50000000000000000e+04   2.52000000000000000e+04   2.54000000000000000e+04   2.56000000000000000e+04   2.58000000000000000e+04
             2.60000000000000000e+04
 ETA=    9   0.00000000000000000e+00   2.00000000000000000e+02   4.00000000000000000e+02   6.00000000000000000e+02   8.00000000000000000e+02
             1.00000000000000000e+03   1.20000000000000000e+03   1.40000000000000000e+03   1.60000000000000000e+03   1.80000000000000000e+03
             2.00000000000000000e+03   2.20000000000000000e+03   2.40000000000000000e+03   2.60000000000000000e+03   2.80000000000000000e+03
             3.00000000000000000e+03   3.20000000000000000e+03   3.40000000000000000e+03   3.60000000000000000e+03   3.80000000000000000e+03
             4.00000000000000000e+03   4.20000000000000000e+03   4.40000000000000000e+03   4.60000000000000000e+03   4.80000000000000000e+03
             5.00000000000000000e+03   5.20000000000000000e+03   5.40000000000000000e+03   5.60000000000000000e+03   5.80000000000000000e+03
             6.00000000000000000e+03   6.20000000000000000e+03   6.40000000000000000e+03   6.60000000000000000e+03   6.80000000000000000e+03
             7.00000000000000000e+03   7.20000000000000000e+03   7.40000000000000000e+03   7.60000000000000000e+03   7.80000000000000000e+03
             8.00000000000000000e+03   8.20000000000000000e+03   8.40000000000000000e+03   8.60000000000000000e+03   8.80000000000000000e+03
             9.00000000000000000e+03   9.20000000000000000e+03   9.40000000000000000e+03   9.60000000000000000e+03   9.80000000000000000e+03
             1.00000000000000000e+04   1.02000000000000000e+04   1.04000000000000000e+04   1.06000000000000000e+04   1.08000000000000000e+04
             1.10000000000000000e+04   1.12000000000000000e+04   1.14000000000000000e+04   1.16000000000000000e+04   1.18000000000000000e+04
             1.20000000000000000e+04   1.22000000000000000e+04   1.24000000000000000e+04   1.26000000000000000e+04   1.28000000000000000e+04
             1.30000000000000000e+04   1.32000000000000000e+04   1.34000000000000000e+04   1.36000000000000000e+04   1.38000000000000000e+04
             1.40000000000000000e+04   1.42000000000000000e+04   1.44000000000000000e+04   1.46000000000000000e+04   1.48000000000000000e+04
             1.50000000000000000e+04   1.52000000000000000e+04   1.54000000000000000e+04   1.56000000000000000e+04   1.58000000000000000e+04
             1.60000000000000000e+04   1.62000000000000000e+04   1.64000000000000000e+04   1.66000000000000000e+04   1.68000000000000000e+04
             1.70000000000000000e+04   1.72000000000000000e+04   1.74000000000000000e+04   1.76000000000000000e+04   1.78000000000000000e+04
             1.80000000000000000e+04   1.82000000000000000e+04   1.84000000000000000e+04   1.86000000000000000e+04   1.88000000000000000e+04
             1.90000000000000000e+04   1.92000000000000000e+04   1.94000000000000000e+04   1.96000000000000000e+04   1.98000000000000000e+04
             2.00000000000000000e+04   2.02000000000000000e+04   2.04000000000000000e+04   2.06000000000000000e+04   2.08000000000000000e+04
             2.10000000000000000e+04   2.12000000000000000e+04   2.14000000000000000e+04   2.16000000000000000e+04   2.18000000000000000e+04
             2.20000000000000000e+04   2.22000000000000000e+04   2.24000000000000000e+04   2.26000000000000000e+04   2.28000000000000000e+04
             2.30000000000000000e+04   2.32000000000000000e+04   2.34000000000000000e+04   2.36000000000000000e+04   2.38000000000000000e+04
             2.40000000000000000e+04   2.42000000000000000e+04   2.44000000000000000e+04   2.46000000000000000e+04   2.48000000000000000e+04
             2.50000000000000000e+04   2.52000000000000000e+04   2.54000000000000000e+04   2.56000000000000000e+04   2.58000000000000000e+04
             2.60000000000000000e+04
 ETA=   10   0.00000000000000000e+00   2.00000000000000000e+02   4.00000000000000000e+02   6.00000000000000000e+02   8.00000000000000000e+02
             1.00000000000000000e+03   1.20000000000000000e+03   1.40000000000000000e+03   1.60000000000000000e+03   1.80000000000000000e+03
             2.00000000000000000e+03   2.20000000000000000e+03   2.40000000000000000e+03   2.60000000000000000e+03   2.80000000000000000e+03
             3.00000000000000000e+03   3.20000000000000000e+03   3.40000000000000000e+03   3.60000000000000000e+03   3.80000000000000000e+03
             4.00000000000000000e+03   4.20000000000000000e+03   4.40000000000000000e+03   4.60000000000000000e+03   4.80000000000000000e+03
             5.00000000000000000e+03   5.20000000000000000e+03   5.40000000000000000e+03   5.60000000000000000e+03   5.80000000000000000e+03
             6.00000000000000000e+03   6.20000000000000000e+03   6.40000000000000000e+03   6.60000000000000000e+03   6.80000000000000000e+03
             7.00000000000000000e+03   7.20000000000000000e+03   7.40000000000000000e+03   7.60000000000000000e+03   7.80000000000000000e+03
             8.00000000000000000e+03   8.20000000000000000e+03   8.40000000000000000e+03   8.60000000000000000e+03   8.80000000000000000e+03
             9.00000000000000000e+03   9.20000000000000000e+03   9.40000000000000000e+03   9.60000000000000000e+03   9.80000000000000000e+03
             1.00000000000000000e+04   1.02000000000000000e+04   1.04000000000000000e+04   1.06000000000000000e+04   1.08000000000000000e+04
             1.10000000000000000e+04   1.12000000000000000e+04   1.14000000000000000e+04   1.16000000000000000e+04   1.18000000000000000e+04
             1.20000000000000000e+04   1.22000000000000000e+04   1.24000000000000000e+04   1.26000000000000000e+04   1.28000000000000000e+04
             1.30000000000000000e+04   1.32000000000000000e+04   1.34000000000000000e+04   1.36000000000000000e+04   1.38000000000000000e+04
             1.40000000000000000e+04   1.42000000000000000e+04   1.44000000000000000e+04   1.46000000000000000e+04   1.48000000000000000e+04
             1.50000000000000000e+04   1.52000000000000000e+04   1.54000000000000000e+04   1.56000000000000000e+04   1.58000000000000000e+04
             1.60000000000000000e+04   1.62000000000000000e+04   1.64000000000000000e+04   1.66000000000000000e+04   1.68000000000000000e+04
             1.70000000000000000e+04   1.72000000000000000e+04   1.74000000000000000e+04   1.76000000000000000e+04   1.78000000000000000e+04
             1.80000000000000000e+04   1.82000000000000000e+04   1.84000000000000000e+04   1.86000000000000000e+04   1.88000000000000000e+04
             1.90000000000000000e+04   1.92000000000000000e+04   1.94000000000000000e+04   1.96000000000000000e+04   1.98000000000000000e+04
             2.00000000000000000e+04   2.02000000000000000e+04   2.04000000000000000e+04   2.06000000000000000e+04   2.08000000000000000e+04
             2.10000000000000000e+04   2.12000000000000000e+04   2.14000000000000000e+04   2.16000000000000000e+04   2.18000000000000000e+04
             2.20000000000000000e+04   2.22000000000000000e+04   2.24000000000000000e+04   2.26000000000000000e+04   2.28000000000000000e+04
             2.30000000000000000e+04   2.32000000000000000e+04   2.34000000000000000e+04   2.36000000000000000e+04   2.38000000000000000e+04
             2.40000000000000000e+04   2.42000000000000000e+04   2.44000000000000000e+04   2.46000000000000000e+04   2.48000000000000000e+04
             2.50000000000000000e+04   2.52000000000000000e+04   2.54000000000000000e+04   2.56000000000000000e+04   2.58000000000000000e+04
             2.60000000000000000e+04
 ETA=   11   0.00000000000000000e+00   2.00000000000000000e+02   4.00000000000000000e+02   6.00000000000000000e+02   8.00000000000000000e+02
             1.00000000000000000e+03   1.20000000000000000e+03   1.40000000000000000e+03   1.60000000000000000e+03   1.80000000000000000e+03
             2.00000000000000000e+03   2.20000000000000000e+03   2.40000000000000000e+03   2.60000000000000000e+03   2.80000000000000000e+03
             3.00000000000000000e+03   3.20000000000000000e+03   3.40000000000000000e+03   3.60000000000000000e+03   3.80000000000000000e+03
             4.00000000000000000e+03   4.20000000000000000e+03   4.40000000000000000e+03   4.60000000000000000e+03   4.80000000000000000e+03
             5.00000000000000000e+03   5.20000000000000000e+03   5.40000000000000000e+03   5.60000000000000000e+03   5.80000000000000000e+03
             6.00000000000000000e+03   6.20000000000000000e+03   6.40000000000000000e+03   6.60000000000000000e+03   6.80000000000000000e+03
             7.00000000000000000e+03   7.20000000000000000e+03   7.40000000000000000e+03   7.60000000000000000e+03   7.80000000000000000e+03
             8.00000000000000000e+03   8.20000000000000000e+03   8.40000000000000000e+03   8.60000000000000000e+03   8.80000000000000000e+03
             9.00000000000000000e+03   9.20000000000000000e+03   9.40000000000000000e+03   9.60000000000000000e+03   9.80000000000000000e+03
             1.00000000000000000e+04   1.02000000000000000e+04   1.04000000000000000e+04   1.06000000000000000e+04   1.08000000000000000e+04
             1.10000000000000000e+04   1.12000000000000000e+04   1.14000000000000000e+04   1.16000000000000000e+04   1.18000000000000000e+04
             1.20000000000000000e+04   1.22000000000000000e+04   1.24000000000000000e+04   1.26000000000000000e+04   1.28000000000000000e+04
             1.30000000000000000e+04   1.32000000000000000e+04   1.34000000000000000e+04   1.36000000000000000e+04   1.38000000000000000e+04
             1.40000000000000000e+04   1.42000000000000000e+04   1.44000000000000000e+04   1.46000000000000000e+04   1.48000000000000000e+04
             1.50000000000000000e+04   1.52000000000000000e+04   1.54000000000000000e+04   1.56000000000000000e+04   1.58000000000000000e+04
             1.60000000000000000e+04   1.62000000000000000e+04   1.64000000000000000e+04   1.66000000000000000e+04   1.68000000000000000e+04
             1.70000000000000000e+04   1.72000000000000000e+04   1.74000000000000000e+04   1.76000000000000000e+04   1.78000000000000000e+04
             1.80000000000000000e+04   1.82000000000000000e+04   1.84000000000000000e+04   1.86000000000000000e+04   1.88000000000000000e+04
             1.90000000000000000e+04   1.92000000000000000e+04   1.94000000000000000e+04   1.96000000000000000e+04   1.98000000000000000e+04
             2.00000000000000000e+04   2.02000000000000000e+04   2.04000000000000000e+04   2.06000000000000000e+04   2.08000000000000000e+04
             2.10000000000000000e+04   2.12000000000000000e+04   2.14000000000000000e+04   2.16000000000000000e+04   2.18000000000000000e+04
             2.20000000000000000e+04   2.22000000000000000e+04   2.24000000000000000e+04   2.26000000000000000e+04   2.28000000000000000e+04
             2.30000000000000000e+04   2.32000000000000000e+04   2.34000000000000000e+04   2.36000000000000000e+04   2.38000000000000000e+04
             2.40000000000000000e+04   2.42000000000000000e+04   2.44000000000000000e+04   2.46000000000000000e+04   2.48000000000000000e+04
             2.50000000000000000e+04   2.52000000000000000e+04   2.54000000000000000e+04   2.56000000000000000e+04   2.58000000000000000e+04
             2.60000000000000000e+04
 ETA=   12   0.00000000000000000e+00   2.00000000000000000e+02   4.00000000000000000e+02   6.00000000000000000e+02   8.00000000000000000e+02
             1.00000000000000000e+03   1.20000000000000000e+03   1.40000000000000000e+03   1.60000000000000000e+03   1.80000000000000000e+03
             2.00000000000000000e+03   2.20000000000000000e+03   2.40000000000000000e+03   2.60000000000000000e+03   2.80000000000000000e+03
             3.00000000000000000e+03   3.20000000000000000e+03   3.40000000000000000e+03   3.60000000000000000e+03   3.80000000000000000e+03
             4.00000000000000000e+03   4.20000000000000000e+03   4.40000000000000000e+03   4.60000000000000000e+03   4.80000000000000000e+03
             5.00000000000000000e+03   5.20000000000000000e+03   5.40000000000000000e+03   5.60000000000000000e+03   5.80000000000000000e+03
             6.00000000000000000e+03   6.20000000000000000e+03   6.40000000000000000e+03   6.60000000000000000e+03   6.80000000000000000e+03
             7.00000000000000000e+03   7.20000000000000000e+03   7.40000000000000000e+03   7.60000000000000000e+03   7.80000000000000000e+03
             8.00000000000000000e+03   8.20000000000000000e+03   8.40000000000000000e+03   8.60000000000000000e+03   8.80000000000000000e+03
             9.00000000000000000e+03   9.20000000000000000e+03   9.40000000000000000e+03   9.60000000000000000e+03   9.80000000000000000e+03
             1.00000000000000000e+04   1.02000000000000000e+04   1.04000000000000000e+04   1.06000000000000000e+04   1.08000000000000000e+04
             1.10000000000000000e+04   1.12000000000000000e+04   1.14000000000000000e+04   1.16000000000000000e+04   1.18000000000000000e+04
             1.20000000000000000e+04   1.22000000000000000e+04   1.24000000000000000e+04   1.26000000000000000e+04   1.28000000000000000e+04
             1.30000000000000000e+04   1.32000000000000000e+04   1.34000000000000000e+04   1.36000000000000000e+04   1.38000000000000000e+04
             1.40000000000000000e+04   1.42000000000000000e+04   1.44000000000000000e+04   1.46000000000000000e+04   1.48000000000000000e+04
             1.50000000000000000e+04   1.52000000000000000e+04   1.54000000000000000e+04   1.56000000000000000e+04   1.58000000000000000e+04
             1.60000000000000000e+04   1.62000000000000000e+04   1.64000000000000000e+04   1.66000000000000000e+04   1.68000000000000000e+04
             1.70000000000000000e+04   1.72000000000000000e+04   1.74000000000000000e+04   1.76000000000000000e+04   1.78000000000000000e+04
             1.80000000000000000e+04   1.82000000000000000e+04   1.84000000000000000e+04   1.86000000000000000e+04   1.88000000000000000e+04
             1.90000000000000000e+04   1.92000000000000000e+04   1.94000000000000000e+04   1.96000000000000000e+04   1.98000000000000000e+04
             2.00000000000000000e+04   2.02000000000000000e+04   2.04000000000000000e+04   2.06000000000000000e+04   2.08000000000000000e+04
             2.10000000000000000e+04   2.12000000000000000e+04   2.14000000000000000e+04   2.16000000000000000e+04   2.18000000000000000e+04
             2.20000000000000000e+04   2.22000000000000000e+04   2.24000000000000000e+04   2.26000000000000000e+04   2.28000000000000000e+04
             2.30000000000000000e+04   2.32000000000000000e+04   2.34000000000000000e+04   2.36000000000000000e+04   2.38000000000000000e+04
             2.40000000000000000e+04   2.42000000000000000e+04   2.44000000000000000e+04   2.46000000000000000e+04   2.48000000000000000e+04
             2.50000000000000000e+04   2.52000000000000000e+04   2.54000000000000000e+04   2.56000000000000000e+04   2.58000000000000000e+04
             2.60000000000000000e+04
 ETA=   13   0.00000000000000000e+00   2.00000000000000000e+02   4.00000000000000000e+02   6.00000000000000000e+02   8.00000000000000000e+02
             1.00000000000000000e+03   1.20000000000000000e+03   1.40000000000000000e+03   1.60000000000000000e+03   1.80000000000000000e+03
             2.00000000000000000e+03   2.20000000000000000e+03   2.40000000000000000e+03   2.60000000000000000e+03   2.80000000000000000e+03
             3.00000000000000000e+03   3.20000000000000000e+03   3.40000000000000000e+03   3.60000000000000000e+03   3.80000000000000000e+03
             4.00000000000000000e+03   4.20000000000000000e+03   4.40000000000000000e+03   4.60000000000000000e+03   4.80000000000000000e+03
             5.00000000000000000e+03   5.20000000000000000e+03   5.40000000000000000e+03   5.60000000000000000e+03   5.80000000000000000e+03
             6.00000000000000000e+03   6.20000000000000000e+03   6.40000000000000000e+03   6.60000000000000000e+03   6.80000000000000000e+03
             7.00000000000000000e+03   7.20000000000000000e+03   7.40000000000000000e+03   7.60000000000000000e+03   7.80000000000000000e+03
             8.00000000000000000e+03   8.20000000000000000e+03   8.40000000000000000e+03   8.60000000000000000e+03   8.80000000000000000e+03
             9.00000000000000000e+03   9.20000000000000000e+03   9.40000000000000000e+03   9.60000000000000000e+03   9.80000000000000000e+03
             1.00000000000000000e+04   1.02000000000000000e+04   1.04000000000000000e+04   1.06000000000000000e+04   1.08000000000000000e+04
             1.10000000000000000e+04   1.12000000000000000e+04   1.14000000000000000e+04   1.16000000000000000e+04   1.18000000000000000e+04
             1.20000000000000000e+04   1.22000000000000000e+04   1.24000000000000000e+04   1.26000000000000000e+04   1.28000000000000000e+04
             1.30000000000000000e+04   1.32000000000000000e+04   1.34000000000000000e+04   1.36000000000000000e+04   1.38000000000000000e+04
             1.40000000000000000e+04   1.42000000000000000e+04   1.44000000000000000e+04   1.46000000000000000e+04   1.48000000000000000e+04
             1.50000000000000000e+04   1.52000000000000000e+04   1.54000000000000000e+04   1.56000000000000000e+04   1.58000000000000000e+04
             1.60000000000000000e+04   1.62000000000000000e+04   1.64000000000000000e+04   1.66000000000000000e+04   1.68000000000000000e+04
             1.70000000000000000e+04   1.72000000000000000e+04   1.74000000000000000e+04   1.76000000000000000e+04   1.78000000000000000e+04
             1.80000000000000000e+04   1.82000000000000000e+04   1.84000000000000000e+04   1.86000000000000000e+04   1.88000000000000000e+04
             1.90000000000000000e+04   1.92000000000000000e+04   1.94000000000000000e+04   1.96000000000000000e+04   1.98000000000000000e+04
             2.00000000000000000e+04   2.02000000000000000e+04   2.04000000000000000e+04   2.06000000000000000e+04   2.08000000000000000e+04
             2.10000000000000000e+04   2.12000000000000000e+04   2.14000000000000000e+04   2.16000000000000000e+04   2.18000000000000000e+04
             2.20000000000000000e+04   2.22000000000000000e+04   2.24000000000000000e+04   2.26000000000000000e+04   2.28000000000000000e+04
             2.30000000000000000e+04   2.32000000000000000e+04   2.34000000000000000e+04   2.36000000000000000e+04   2.38000000000000000e+04
             2.40000000000000000e+04   2.42000000000000000e+04   2.44000000000000000e+04   2.46000000000000000e+04   2.48000000000000000e+04
             2.50000000000000000e+04   2.52000000000000000e+04   2.54000000000000000e+04   2.56000000000000000e+04   2.58000000000000000e+04
             2.60000000000000000e+04
 ETA=   14   0.00000000000000000e+00   2.00000000000000000e+02   4.00000000000000000e+02   6.00000000000000000e+02   8.00000000000000000e+02
             1.00000000000000000e+03   1.20000000000000000e+03   1.40000000000000000e+03   1.60000000000000000e+03   1.80000000000000000e+03
             2.00000000000000000e+03   2.20000000000000000e+03   2.40000000000000000e+03   2.60000000000000000e+03   2.80000000000000000e+03
             3.00000000000000000e+03   3.20000000000000000e+03   3.40000000000000000e+03   3.60000000000000000e+03   3.80000000000000000e+03
             4.00000000000000000e+03   4.20000000000000000e+03   4.40000000000000000e+03   4.60000000000000000e+03   4.80000000000000000e+03
             5.00000000000000000e+03   5.20000000000000000e+03   5.40000000000000000e+03   5.60000000000000000e+03   5.80000000000000000e+03
             6.00000000000000000e+03   6.20000000000000000e+03   6.40000000000000000e+03   6.60000000000000000e+03   6.80000000000000000e+03
             7.00000000000000000e+03   7.20000000000000000e+03   7.40000000000000000e+03   7.60000000000000000e+03   7.80000000000000000e+03
             8.00000000000000000e+03   8.20000000000000000e+03   8.40000000000000000e+03   8.60000000000000000e+03   8.80000000000000000e+03
             9.00000000000000000e+03   9.20000000000000000e+03   9.40000000000000000e+03   9.60000000000000000e+03   9.80000000000000000e+03
             1.00000000000000000e+04   1.02000000000000000e+04   1.04000000000000000e+04   1.06000000000000000e+04   1.08000000000000000e+04
             1.10000000000000000e+04   1.12000000000000000e+04   1.14000000000000000e+04   1.16000000000000000e+04   1.18000000000000000e+04
             1.20000000000000000e+04   1.22000000000000000e+04   1.24000000000000000e+04   1.26000000000000000e+04   1.28000000000000000e+04
             1.30000000000000000e+04   1.32000000000000000e+04   1.34000000000000000e+04   1.36000000000000000e+04   1.38000000000000000e+04
             1.40000000000000000e+04   1.42000000000000000e+04   1.44000000000000000e+04   1.46000000000000000e+04   1.48000000000000000e+04
             1.50000000000000000e+04   1.52000000000000000e+04   1.54000000000000000e+04   1.56000000000000000e+04   1.58000000000000000e+04
             1.60000000000000000e+04   1.62000000000000000e+04   1.64000000000000000e+04   1.66000000000000000e+04   1.68000000000000000e+04
             1.70000000000000000e+04   1.72000000000000000e+04   1.74000000000000000e+04   1.76000000000000000e+04   1.78000000000000000e+04
             1.80000000000000000e+04   1.82000000000000000e+04   1.84000000000000000e+04   1.86000000000000000e+04   1.88000000000000000e+04
             1.90000000000000000e+04   1.92000000000000000e+04   1.94000000000000000e+04   1.96000000000000000e+04   1.98000000000000000e+04
             2.00000000000000000e+04   2.02000000000000000e+04   2.04000000000000000e+04   2.06000000000000000e+04   2.08000000000000000e+04
             2.10000000000000000e+04   2.12000000000000000e+04   2.14000000000000000e+04   2.16000000000000000e+04   2.18000000000000000e+04
             2.20000000000000000e+04   2.22000000000000000e+04   2.24000000000000000e+04   2.26000000000000000e+04   2.28000000000000000e+04
             2.30000000000000000e+04   2.32000000000000000e+04   2.34000000000000000e+04   2.36000000000000000e+04   2.38000000000000000e+04
             2.40000000000000000e+04   2.42000000000000000e+04   2.44000000000000000e+04   2.46000000000000000e+04   2.48000000000000000e+04
             2.50000000000000000e+04   2.52000000000000000e+04   2.54000000000000000e+04   2.56000000000000000e+04   2.58000000000000000e+04
             2.60000000000000000e+04
 ETA=   15   0.00000000000000000e+00   2.00000000000000000e+02   4.00000000000000000e+02   6.00000000000000000e+02   8.00000000000000000e+02
             1.00000000000000000e+03   1.20000000000000000e+03   1.40000000000000000e+03   1.60000000000000000e+03   1.80000000000000000e+03
             2.00000000000000000e+03   2.20000000000000000e+03   2.40000000000000000e+03   2.60000000000000000e+03   2.80000000000000000e+03
             3.00000000000000000e+03   3.20000000000000000e+03   3.40000000000000000e+03   3.60000000000000000e+03   3.80000000000000000e+03
             4.00000000000000000e+03   4.20000000000000000e+03   4.40000000000000000e+03   4.60000000000000000e+03   4.80000000000000000e+03
             5.00000000000000000e+03   5.20000000000000000e+03   5.40000000000000000e+03   5.60000000000000000e+03   5.80000000000000000e+03
             6.00000000000000000e+03   6.20000000000000000e+03   6.40000000000000000e+03   6.60000000000000000e+03   6.80000000000000000e+03
             7.00000000000000000e+03   7.20000000000000000e+03   7.40000000000000000e+03   7.60000000000000000e+03   7.80000000000000000e+03
             8.00000000000000000e+03   8.20000000000000000e+03   8.40000000000000000e+03   8.60000000000000000e+03   8.80000000000000000e+03
             9.00000000000000000e+03   9.20000000000000000e+03   9.40000000000000000e+03   9.60000000000000000e+03   9.80000000000000000e+03
             1.00000000000000000e+04   1.02000000000000000e+04   1.04000000000000000e+04   1.06000000000000000e+04   1.08000000000000000e+04
             1.10000000000000000e+04   1.12000000000000000e+04   1.14000000000000000e+04   1.16000000000000000e+04   1.18000000000000000e+04
             1.20000000000000000e+04   1.22000000000000000e+04   1.24000000000000000e+04   1.26000000000000000e+04   1.28000000000000000e+04
             1.30000000000000000e+04   1.32000000000000000e+04   1.34000000000000000e+04   1.36000000000000000e+04   1.38000000000000000e+04
             1.40000000000000000e+04   1.42000000000000000e+04   1.44000000000000000e+04   1.46000000000000000e+04   1.48000000000000000e+04
             1.50000000000000000e+04   1.52000000000000000e+04   1.54000000000000000e+04   1.56000000000000000e+04   1.58000000000000000e+04
             1.60000000000000000e+04   1.62000000000000000e+04   1.64000000000000000e+04   1.66000000000000000e+04   1.68000000000000000e+04
             1.70000000000000000e+04   1.72000000000000000e+04   1.74000000000000000e+04   1.76000000000000000e+04   1.78000000000000000e+04
             1.80000000000000000e+04   1.82000000000000000e+04   1.84000000000000000e+04   1.86000000000000000e+04   1.88000000000000000e+04
             1.90000000000000000e+04   1.92000000000000000e+04   1.94000000000000000e+04   1.96000000000000000e+04   1.98000000000000000e+04
             2.00000000000000000e+04   2.02000000000000000e+04   2.04000000000000000e+04   2.06000000000000000e+04   2.08000000000000000e+04
             2.10000000000000000e+04   2.12000000000000000e+04   2.14000000000000000e+04   2.16000000000000000e+04   2.18000000000000000e+04
             2.20000000000000000e+04   2.22000000000000000e+04   2.24000000000000000e+04   2.26000000000000000e+04   2.28000000000000000e+04
             2.30000000000000000e+04   2.32000000000000000e+04   2.34000000000000000e+04   2.36000000000000000e+04   2.38000000000000000e+04
             2.40000000000000000e+04   2.42000000000000000e+04   2.44000000000000000e+04   2.46000000000000000e+04   2.48000000000000000e+04
             2.50000000000000000e+04   2.52000000000000000e+04   2.54000000000000000e+04   2.56000000000000000e+04   2.58000000000000000e+04
             2.60000000000000000e+04
 ETA=   16   0.00000000000000000e+00   2.00000000000000000e+02   4.00000000000000000e+02   6.00000000000000000e+02   8.00000000000000000e+02
             1.00000000000000000e+03   1.20000000000000000e+03   1.40000000000000000e+03   1.60000000000000000e+03   1.80000000000000000e+03
             2.00000000000000000e+03   2.20000000000000000e+03   2.40000000000000000e+03   2.60000000000000000e+03   2.80000000000000000e+03
             3.00000000000000000e+03   3.20000000000000000e+03   3.40000000000000000e+03   3.60000000000000000e+03   3.80000000000000000e+03
             4.00000000000000000e+03   4.20000000000000000e+03   4.40000000000000000e+03   4.60000000000000000e+03   4.80000000000000000e+03
             5.00000000000000000e+03   5.20000000000000000e+03   5.40000000000000000e+03   5.60000000000000000e+03   5.80000000000000000e+03
             6.00000000000000000e+03   6.20000000000000000e+03   6.40000000000000000e+03   6.60000000000000000e+03   6.80000000000000000e+03
             7.00000000000000000e+03   7.20000000000000000e+03   7.40000000000000000e+03   7.60000000000000000e+03   7.80000000000000000e+03
             8.00000000000000000e+03   8.20000000000000000e+03   8.40000000000000000e+03   8.60000000000000000e+03   8.80000000000000000e+03
             9.00000000000000000e+03   9.20000000000000000e+03   9.40000000000000000e+03   9.60000000000000000e+03   9.80000000000000000e+03
             1.00000000000000000e+04   1.02000000000000000e+04   1.04000000000000000e+04   1.06000000000000000e+04   1.08000000000000000e+04
             1.10000000000000000e+04   1.12000000000000000e+04   1.14000000000000000e+04   1.16000000000000000e+04   1.18000000000000000e+04
             1.20000000000000000e+04   1.22000000000000000e+04   1.24000000000000000e+04   1.26000000000000000e+04   1.28000000000000000e+04
             1.30000000000000000e+04   1.32000000000000000e+04   1.34000000000000000e+04   1.36000000000000000e+04   1.38000000000000000e+04
             1.40000000000000000e+04   1.42000000000000000e+04   1.44000000000000000e+04   1.46000000000000000e+04   1.48000000000000000e+04
             1.50000000000000000e+04   1.52000000000000000e+04   1.54000000000000000e+04   1.56000000000000000e+04   1.58000000000000000e+04
             1.60000000000000000e+04   1.62000000000000000e+04   1.64000000000000000e+04   1.66000000000000000e+04   1.68000000000000000e+04
             1.70000000000000000e+04   1.72000000000000000e+04   1.74000000000000000e+04   1.76000000000000000e+04   1.78000000000000000e+04
             1.80000000000000000e+04   1.82000000000000000e+04   1.84000000000000000e+04   1.86000000000000000e+04   1.88000000000000000e+04
             1.90000000000000000e+04   1.92000000000000000e+04   1.94000000000000000e+04   1.96000000000000000e+04   1.98000000000000000e+04
             2.00000000000000000e+04   2.02000000000000000e+04   2.04000000000000000e+04   2.06000000000000000e+04   2.08000000000000000e+04
             2.10000000000000000e+04   2.12000000000000000e+04   2.14000000000000000e+04   2.16000000000000000e+04   2.18000000000000000e+04
             2.20000000000000000e+04   2.22000000000000000e+04   2.24000000000000000e+04   2.26000000000000000e+04   2.28000000000000000e+04
             2.30000000000000000e+04   2.32000000000000000e+04   2.34000000000000000e+04   2.36000000000000000e+04   2.38000000000000000e+04
             2.40000000000000000e+04   2.42000000000000000e+04   2.44000000000000000e+04   2.46000000000000000e+04   2.48000000000000000e+04
             2.50000000000000000e+04   2.52000000000000000e+04   2.54000000000000000e+04   2.56000000000000000e+04   2.58000000000000000e+04
             2.60000000000000000e+04
 ETA=   17   0.00000000000000000e+00   2.00000000000000000e+02   4.00000000000000000e+02   6.00000000000000000e+02   8.00000000000000000e+02
             1.00000000000000000e+03   1.20000000000000000e+03   1.40000000000000000e+03   1.60000000000000000e+03   1.80000000000000000e+03
             2.00000000000000000e+03   2.20000000000000000e+03   2.40000000000000000e+03   2.60000000000000000e+03   2.80000000000000000e+03
             3.00000000000000000e+03   3.20000000000000000e+03   3.40000000000000000e+03   3.60000000000000000e+03   3.80000000000000000e+03
             4.00000000000000000e+03   4.20000000000000000e+03   4.40000000000000000e+03   4.60000000000000000e+03   4.80000000000000000e+03
             5.00000000000000000e+03   5.20000000000000000e+03   5.40000000000000000e+03   5.60000000000000000e+03   5.80000000000000000e+03
             6.00000000000000000e+03   6.20000000000000000e+03   6.40000000000000000e+03   6.60000000000000000e+03   6.80000000000000000e+03
             7.00000000000000000e+03   7.20000000000000000e+03   7.40000000000000000e+03   7.60000000000000000e+03   7.80000000000000000e+03
             8.00000000000000000e+03   8.20000000000000000e+03   8.40000000000000000e+03   8.60000000000000000e+03   8.80000000000000000e+03
             9.00000000000000000e+03   9.20000000000000000e+03   9.40000000000000000e+03   9.60000000000000000e+03   9.80000000000000000e+03
             1.00000000000000000e+04   1.02000000000000000e+04   1.04000000000000000e+04   1.06000000000000000e+04   1.08000000000000000e+04
             1.10000000000000000e+04   1.12000000000000000e+04   1.14000000000000000e+04   1.16000000000000000e+04   1.18000000000000000e+04
             1.20000000000000000e+04   1.22000000000000000e+04   1.24000000000000000e+04   1.26000000000000000e+04   1.28000000000000000e+04
             1.30000000000000000e+04   1.32000000000000000e+04   1.34000000000000000e+04   1.36000000000000000e+04   1.38000000000000000e+04
             1.40000000000000000e+04   1.42000000000000000e+04   1.44000000000000000e+04   1.46000000000000000e+04   1.48000000000000000e+04
             1.50000000000000000e+04   1.52000000000000000e+04   1.54000000000000000e+04   1.56000000000000000e+04   1.58000000000000000e+04
             1.60000000000000000e+04   1.62000000000000000e+04   1.64000000000000000e+04   1.66000000000000000e+04   1.68000000000000000e+04
             1.70000000000000000e+04   1.72000000000000000e+04   1.74000000000000000e+04   1.76000000000000000e+04   1.78000000000000000e+04
             1.80000000000000000e+04   1.82000000000000000e+04   1.84000000000000000e+04   1.86000000000000000e+04   1.88000000000000000e+04
             1.90000000000000000e+04   1.92000000000000000e+04   1.94000000000000000e+04   1.96000000000000000e+04   1.98000000000000000e+04
             2.00000000000000000e+04   2.02000000000000000e+04   2.04000000000000000e+04   2.06000000000000000e+04   2.08000000000000000e+04
             2.10000000000000000e+04   2.12000000000000000e+04   2.14000000000000000e+04   2.16000000000000000e+04   2.18000000000000000e+04
             2.20000000000000000e+04   2.22000000000000000e+04   2.24000000000000000e+04   2.26000000000000000e+04   2.28000000000000000e+04
             2.30000000000000000e+04   2.32000000000000000e+04   2.34000000000000000e+04   2.36000000000000000e+04   2.38000000000000000e+04
             2.40000000000000000e+04   2.42000000000000000e+04   2.44000000000000000e+04   2.46000000000000000e+04   2.48000000000000000e+04
             2.50000000000000000e+04   2.52000000000000000e+04   2.54000000000000000e+04   2.56000000000000000e+04   2.58000000000000000e+04
             2.60000000000000000e+04
 ETA=   18   0.00000000000000000e+00   2.00000000000000000e+02   4.00000000000000000e+02   6.00000000000000000e+02   8.00000000000000000e+02
             1.00000000000000000e+03   1.20000000000000000e+03   1.40000000000000000e+03   1.60000000000000000e+03   1.80000000000000000e+03
             2.00000000000000000e+03   2.20000000000000000e+03   2.40000000000000000e+03   2.60000000000000000e+03   2.80000000000000000e+03
             3.00000000000000000e+03   3.20000000000000000e+03   3.40000000000000000e+03   3.60000000000000000e+03   3.80000000000000000e+03
             4.00000000000000000e+03   4.20000000000000000e+03   4.40000000000000000e+03   4.60000000000000000e+03   4.80000000000000000e+03
             5.00000000000000000e+03   5.20000000000000000e+03   5.40000000000000000e+03   5.60000000000000000e+03   5.80000000000000000e+03
             6.00000000000000000e+03   6.20000000000000000e+03   6.40000000000000000e+03   6.60000000000000000e+03   6.80000000000000000e+03
             7.00000000000000000e+03   7.20000000000000000e+03   7.40000000000000000e+03   7.60000000000000000e+03   7.80000000000000000e+03
             8.00000000000000000e+03   8.20000000000000000e+03   8.40000000000000000e+03   8.60000000000000000e+03   8.80000000000000000e+03
             9.00000000000000000e+03   9.20000000000000000e+03   9.40000000000000000e+03   9.60000000000000000e+03   9.80000000000000000e+03
             1.00000000000000000e+04   1.02000000000000000e+04   1.04000000000000000e+04   1.06000000000000000e+04   1.08000000000000000e+04
             1.10000000000000000e+04   1.12000000000000000e+04   1.14000000000000000e+04   1.16000000000000000e+04   1.18000000000000000e+04
             1.20000000000000000e+04   1.22000000000000000e+04   1.24000000000000000e+04   1.26000000000000000e+04   1.28000000000000000e+04
             1.30000000000000000e+04   1.32000000000000000e+04   1.34000000000000000e+04   1.36000000000000000e+04   1.38000000000000000e+04
             1.40000000000000000e+04   1.42000000000000000e+04   1.44000000000000000e+04   1.46000000000000000e+04   1.48000000000000000e+04
             1.50000000000000000e+04   1.52000000000000000e+04   1.54000000000000000e+04   1.56000000000000000e+04   1.58000000000000000e+04
             1.60000000000000000e+04   1.62000000000000000e+04   1.64000000000000000e+04   1.66000000000000000e+04   1.68000000000000000e+04
             1.70000000000000000e+04   1.72000000000000000e+04   1.74000000000000000e+04   1.76000000000000000e+04   1.78000000000000000e+04
             1.80000000000000000e+04   1.82000000000000000e+04   1.84000000000000000e+04   1.86000000000000000e+04   1.88000000000000000e+04
             1.90000000000000000e+04   1.92000000000000000e+04   1.94000000000000000e+04   1.96000000000000000e+04   1.98000000000000000e+04
             2.00000000000000000e+04   2.02000000000000000e+04   2.04000000000000000e+04   2.06000000000000000e+04   2.08000000000000000e+04
             2.10000000000000000e+04   2.12000000000000000e+04   2.14000000000000000e+04   2.16000000000000000e+04   2.18000000000000000e+04
             2.20000000000000000e+04   2.22000000000000000e+04   2.24000000000000000e+04   2.26000000000000000e+04   2.28000000000000000e+04
             2.30000000000000000e+04   2.32000000000000000e+04   2.34000000000000000e+04   2.36000000000000000e+04   2.38000000000000000e+04
             2.40000000000000000e+04   2.42000000000000000e+04   2.44000000000000000e+04   2.46000000000000000e+04   2.48000000000000000e+04
             2.50000000000000000e+04   2.52000000000000000e+04   2.54000000000000000e+04   2.56000000000000000e+04   2.58000000000000000e+04
             2.60000000000000000e+04
 ETA=   19   0.00000000000000000e+00   2.00000000000000000e+02   4.00000000000000000e+02   6.00000000000000000e+02   8.00000000000000000e+02
             1.00000000000000000e+03   1.20000000000000000e+03   1.40000000000000000e+03   1.60000000000000000e+03   1.80000000000000000e+03
             2.00000000000000000e+03   2.20000000000000000e+03   2.40000000000000000e+03   2.60000000000000000e+03   2.80000000000000000e+03
             3.00000000000000000e+03   3.20000000000000000e+03   3.40000000000000000e+03   3.60000000000000000e+03   3.80000000000000000e+03
             4.00000000000000000e+03   4.20000000000000000e+03   4.40000000000000000e+03   4.60000000000000000e+03   4.80000000000000000e+03
             5.00000000000000000e+03   5.20000000000000000e+03   5.40000000000000000e+03   5.60000000000000000e+03   5.80000000000000000e+03
             6.00000000000000000e+03   6.20000000000000000e+03   6.40000000000000000e+03   6.60000000000000000e+03   6.80000000000000000e+03
             7.00000000000000000e+03   7.20000000000000000e+03   7.40000000000000000e+03   7.60000000000000000e+03   7.80000000000000000e+03
             8.00000000000000000e+03   8.20000000000000000e+03   8.40000000000000000e+03   8.60000000000000000e+03   8.80000000000000000e+03
             9.00000000000000000e+03   9.20000000000000000e+03   9.40000000000000000e+03   9.60000000000000000e+03   9.80000000000000000e+03
             1.00000000000000000e+04   1.02000000000000000e+04   1.04000000000000000e+04   1.06000000000000000e+04   1.08000000000000000e+04
             1.10000000000000000e+04   1.12000000000000000e+04   1.14000000000000000e+04   1.16000000000000000e+04   1.18000000000000000e+04
             1.20000000000000000e+04   1.22000000000000000e+04   1.24000000000000000e+04   1.26000000000000000e+04   1.28000000000000000e+04
             1.30000000000000000e+04   1.32000000000000000e+04   1.34000000000000000e+04   1.36000000000000000e+04   1.38000000000000000e+04
             1.40000000000000000e+04   1.42000000000000000e+04   1.44000000000000000e+04   1.46000000000000000e+04   1.48000000000000000e+04
             1.50000000000000000e+04   1.52000000000000000e+04   1.54000000000000000e+04   1.56000000000000000e+04   1.58000000000000000e+04
             1.60000000000000000e+04   1.62000000000000000e+04   1.64000000000000000e+04   1.66000000000000000e+04   1.68000000000000000e+04
             1.70000000000000000e+04   1.72000000000000000e+04   1.74000000000000000e+04   1.76000000000000000e+04   1.78000000000000000e+04
             1.80000000000000000e+04   1.82000000000000000e+04   1.84000000000000000e+04   1.86000000000000000e+04   1.88000000000000000e+04
             1.90000000000000000e+04   1.92000000000000000e+04   1.94000000000000000e+04   1.96000000000000000e+04   1.98000000000000000e+04
             2.00000000000000000e+04   2.02000000000000000e+04   2.04000000000000000e+04   2.06000000000000000e+04   2.08000000000000000e+04
             2.10000000000000000e+04   2.12000000000000000e+04   2.14000000000000000e+04   2.16000000000000000e+04   2.18000000000000000e+04
             2.20000000000000000e+04   2.22000000000000000e+04   2.24000000000000000e+04   2.26000000000000000e+04   2.28000000000000000e+04
             2.30000000000000000e+04   2.32000000000000000e+04   2.34000000000000000e+04   2.36000000000000000e+04   2.38000000000000000e+04
             2.40000000000000000e+04   2.42000000000000000e+04   2.44000000000000000e+04   2.46000000000000000e+04   2.48000000000000000e+04
             2.50000000000000000e+04   2.52000000000000000e+04   2.54000000000000000e+04   2.56000000000000000e+04   2.58000000000000000e+04
             2.60000000000000000e+04
 ETA=   20   0.00000000000000000e+00   2.00000000000000000e+02   4.00000000000000000e+02   6.00000000000000000e+02   8.00000000000000000e+02
             1.00000000000000000e+03   1.20000000000000000e+03   1.40000000000000000e+03   1.60000000000000000e+03   1.80000000000000000e+03
             2.00000000000000000e+03   2.20000000000000000e+03   2.40000000000000000e+03   2.60000000000000000e+03   2.80000000000000000e+03
             3.00000000000000000e+03   3.20000000000000000e+03   3.40000000000000000e+03   3.60000000000000000e+03   3.80000000000000000e+03
             4.00000000000000000e+03   4.20000000000000000e+03   4.40000000000000000e+03   4.60000000000000000e+03   4.80000000000000000e+03
             5.00000000000000000e+03   5.20000000000000000e+03   5.40000000000000000e+03   5.60000000000000000e+03   5.80000000000000000e+03
             6.00000000000000000e+03   6.20000000000000000e+03   6.40000000000000000e+03   6.60000000000000000e+03   6.80000000000000000e+03
             7.00000000000000000e+03   7.20000000000000000e+03   7.40000000000000000e+03   7.60000000000000000e+03   7.80000000000000000e+03
             8.00000000000000000e+03   8.20000000000000000e+03   8.40000000000000000e+03   8.60000000000000000e+03   8.80000000000000000e+03
             9.00000000000000000e+03   9.20000000000000000e+03   9.40000000000000000e+03   9.60000000000000000e+03   9.80000000000000000e+03
             1.00000000000000000e+04   1.02000000000000000e+04   1.04000000000000000e+04   1.06000000000000000e+04   1.08000000000000000e+04
             1.10000000000000000e+04   1.12000000000000000e+04   1.14000000000000000e+04   1.16000000000000000e+04   1.18000000000000000e+04
             1.20000000000000000e+04   1.22000000000000000e+04   1.24000000000000000e+04   1.26000000000000000e+04   1.28000000000000000e+04
             1.30000000000000000e+04   1.32000000000000000e+04   1.34000000000000000e+04   1.36000000000000000e+04   1.38000000000000000e+04
             1.40000000000000000e+04   1.42000000000000000e+04   1.44000000000000000e+04   1.46000000000000000e+04   1.48000000000000000e+04
             1.50000000000000000e+04   1.52000000000000000e+04   1.54000000000000000e+04   1.56000000000000000e+04   1.58000000000000000e+04
             1.60000000000000000e+04   1.62000000000000000e+04   1.64000000000000000e+04   1.66000000000000000e+04   1.68000000000000000e+04
             1.70000000000000000e+04   1.72000000000000000e+04   1.74000000000000000e+04   1.76000000000000000e+04   1.78000000000000000e+04
             1.80000000000000000e+04   1.82000000000000000e+04   1.84000000000000000e+04   1.86000000000000000e+04   1.88000000000000000e+04
             1.90000000000000000e+04   1.92000000000000000e+04   1.94000000000000000e+04   1.96000000000000000e+04   1.98000000000000000e+04
             2.00000000000000000e+04   2.02000000000000000e+04   2.04000000000000000e+04   2.06000000000000000e+04   2.08000000000000000e+04
             2.10000000000000000e+04   2.12000000000000000e+04   2.14000000000000000e+04   2.16000000000000000e+04   2.18000000000000000e+04
             2.20000000000000000e+04   2.22000000000000000e+04   2.24000000000000000e+04   2.26000000000000000e+04   2.28000000000000000e+04
             2.30000000000000000e+04   2.32000000000000000e+04   2.34000000000000000e+04   2.36000000000000000e+04   2.38000000000000000e+04
             2.40000000000000000e+04   2.42000000000000000e+04   2.44000000000000000e+04   2.46000000000000000e+04   2.48000000000000000e+04
             2.50000000000000000e+04   2.52000000000000000e+04   2.54000000000000000e+04   2.56000000000000000e+04   2.58000000000000000e+04
             2.60000000000000000e+04
 ETA=   21   0.00000000000000000e+00   2.00000000000000000e+02   4.00000000000000000e+02   6.00000000000000000e+02   8.00000000000000000e+02
             1.00000000000000000e+03   1.20000000000000000e+03   1.40000000000000000e+03   1.60000000000000000e+03   1.80000000000000000e+03
             2.00000000000000000e+03   2.20000000000000000e+03   2.40000000000000000e+03   2.60000000000000000e+03   2.80000000000000000e+03
             3.00000000000000000e+03   3.20000000000000000e+03   3.40000000000000000e+03   3.60000000000000000e+03   3.80000000000000000e+03
             4.00000000000000000e+03   4.20000000000000000e+03   4.40000000000000000e+03   4.60000000000000000e+03   4.80000000000000000e+03
             5.00000000000000000e+03   5.20000000000000000e+03   5.40000000000000000e+03   5.60000000000000000e+03   5.80000000000000000e+03
             6.00000000000000000e+03   6.20000000000000000e+03   6.40000000000000000e+03   6.60000000000000000e+03   6.80000000000000000e+03
             7.00000000000000000e+03   7.20000000000000000e+03   7.40000000000000000e+03   7.60000000000000000e+03   7.80000000000000000e+03
             8.00000000000000000e+03   8.20000000000000000e+03   8.40000000000000000e+03   8.60000000000000000e+03   8.80000000000000000e+03
             9.00000000000000000e+03   9.20000000000000000e+03   9.40000000000000000e+03   9.60000000000000000e+03   9.80000000000000000e+03
             1.00000000000000000e+04   1.02000000000000000e+04   1.04000000000000000e+04   1.06000000000000000e+04   1.08000000000000000e+04
             1.10000000000000000e+04   1.12000000000000000e+04   1.14000000000000000e+04   1.16000000000000000e+04   1.18000000000000000e+04
             1.20000000000000000e+04   1.22000000000000000e+04   1.24000000000000000e+04   1.26000000000000000e+04   1.28000000000000000e+04
             1.30000000000000000e+04   1.32000000000000000e+04   1.34000000000000000e+04   1.36000000000000000e+04   1.38000000000000000e+04
             1.40000000000000000e+04   1.42000000000000000e+04   1.44000000000000000e+04   1.46000000000000000e+04   1.48000000000000000e+04
             1.50000000000000000e+04   1.52000000000000000e+04   1.54000000000000000e+04   1.56000000000000000e+04   1.58000000000000000e+04
             1.60000000000000000e+04   1.62000000000000000e+04   1.64000000000000000e+04   1.66000000000000000e+04   1.68000000000000000e+04
             1.70000000000000000e+04   1.72000000000000000e+04   1.74000000000000000e+04   1.76000000000000000e+04   1.78000000000000000e+04
             1.80000000000000000e+04   1.82000000000000000e+04   1.84000000000000000e+04   1.86000000000000000e+04   1.88000000000000000e+04
             1.90000000000000000e+04   1.92000000000000000e+04   1.94000000000000000e+04   1.96000000000000000e+04   1.98000000000000000e+04
             2.00000000000000000e+04   2.02000000000000000e+04   2.04000000000000000e+04   2.06000000000000000e+04   2.08000000000000000e+04
             2.10000000000000000e+04   2.12000000000000000e+04   2.14000000000000000e+04   2.16000000000000000e+04   2.18000000000000000e+04
             2.20000000000000000e+04   2.22000000000000000e+04   2.24000000000000000e+04   2.26000000000000000e+04   2.28000000000000000e+04
             2.30000000000000000e+04   2.32000000000000000e+04   2.34000000000000000e+04   2.36000000000000000e+04   2.38000000000000000e+04
             2.40000000000000000e+04   2.42000000000000000e+04   2.44000000000000000e+04   2.46000000000000000e+04   2.48000000000000000e+04
             2.50000000000000000e+04   2.52000000000000000e+04   2.54000000000000000e+04   2.56000000000000000e+04   2.58000000000000000e+04
             2.60000000000000000e+04
 ETA=   22   0.00000000000000000e+00   2.00000000000000000e+02   4.00000000000000000e+02   6.00000000000000000e+02   8.00000000000000000e+02
             1.00000000000000000e+03   1.20000000000000000e+03   1.40000000000000000e+03   1.60000000000000000e+03   1.80000000000000000e+03
             2.00000000000000000e+03   2.20000000000000000e+03   2.40000000000000000e+03   2.60000000000000000e+03   2.80000000000000000e+03
             3.00000000000000000e+03   3.20000000000000000e+03   3.40000000000000000e+03   3.60000000000000000e+03   3.80000000000000000e+03
             4.00000000000000000e+03   4.20000000000000000e+03   4.40000000000000000e+03   4.60000000000000000e+03   4.80000000000000000e+03
             5.00000000000000000e+03   5.20000000000000000e+03   5.40000000000000000e+03   5.60000000000000000e+03   5.80000000000000000e+03
             6.00000000000000000e+03   6.20000000000000000e+03   6.40000000000000000e+03   6.60000000000000000e+03   6.80000000000000000e+03
             7.00000000000000000e+03   7.20000000000000000e+03   7.40000000000000000e+03   7.60000000000000000e+03   7.80000000000000000e+03
             8.00000000000000000e+03   8.20000000000000000e+03   8.40000000000000000e+03   8.60000000000000000e+03   8.80000000000000000e+03
             9.00000000000000000e+03   9.20000000000000000e+03   9.40000000000000000e+03   9.60000000000000000e+03   9.80000000000000000e+03
             1.00000000000000000e+04   1.02000000000000000e+04   1.04000000000000000e+04   1.06000000000000000e+04   1.08000000000000000e+04
             1.10000000000000000e+04   1.12000000000000000e+04   1.14000000000000000e+04   1.16000000000000000e+04   1.18000000000000000e+04
             1.20000000000000000e+04   1.22000000000000000e+04   1.24000000000000000e+04   1.26000000000000000e+04   1.28000000000000000e+04
             1.30000000000000000e+04   1.32000000000000000e+04   1.34000000000000000e+04   1.36000000000000000e+04   1.38000000000000000e+04
[...]
             3.51000000000000000e+04   3.51000000000000000e+04   3.51000000000000000e+04   3.51000000000000000e+04   3.51000000000000000e+04
             3.51000000000000000e+04   3.51000000000000000e+04   3.51000000000000000e+04   3.51000000000000000e+04   3.51000000000000000e+04
             3.51000000000000000e+04   3.51000000000000000e+04   3.51000000000000000e+04   3.51000000000000000e+04   3.51000000000000000e+04
             3.51000000000000000e+04   3.51000000000000000e+04   3.51000000000000000e+04   3.51000000000000000e+04   3.51000000000000000e+04
             3.51000000000000000e+04   3.51000000000000000e+04   3.51000000000000000e+04   3.51000000000000000e+04   3.51000000000000000e+04
             3.51000000000000000e+04   3.51000000000000000e+04   3.51000000000000000e+04   3.51000000000000000e+04   3.51000000000000000e+04
             3.51000000000000000e+04   3.51000000000000000e+04   3.51000000000000000e+04   3.51000000000000000e+04   3.51000000000000000e+04
             3.51000000000000000e+04   3.51000000000000000e+04   3.51000000000000000e+04   3.51000000000000000e+04   3.51000000000000000e+04
             3.51000000000000000e+04   3.51000000000000000e+04   3.51000000000000000e+04   3.51000000000000000e+04   3.51000000000000000e+04
             3.51000000000000000e+04   3.51000000000000000e+04   3.51000000000000000e+04   3.51000000000000000e+04   3.51000000000000000e+04
             3.51000000000000000e+04
 ETA=  177   3.53000000000000000e+04   3.53000000000000000e+04   3.53000000000000000e+04   3.53000000000000000e+04   3.53000000000000000e+04
             3.53000000000000000e+04   3.53000000000000000e+04   3.53000000000000000e+04   3.53000000000000000e+04   3.53000000000000000e+04
             3.53000000000000000e+04   3.53000000000000000e+04   3.53000000000000000e+04   3.53000000000000000e+04   3.53000000000000000e+04
             3.53000000000000000e+04   3.53000000000000000e+04   3.53000000000000000e+04   3.53000000000000000e+04   3.53000000000000000e+04
             3.53000000000000000e+04   3.53000000000000000e+04   3.53000000000000000e+04   3.53000000000000000e+04   3.53000000000000000e+04
             3.53000000000000000e+04   3.53000000000000000e+04   3.53000000000000000e+04   3.53000000000000000e+04   3.53000000000000000e+04
             3.53000000000000000e+04   3.53000000000000000e+04   3.53000000000000000e+04   3.53000000000000000e+04   3.53000000000000000e+04
             3.53000000000000000e+04   3.53000000000000000e+04   3.53000000000000000e+04   3.53000000000000000e+04   3.53000000000000000e+04
             3.53000000000000000e+04   3.53000000000000000e+04   3.53000000000000000e+04   3.53000000000000000e+04   3.53000000000000000e+04
             3.53000000000000000e+04   3.53000000000000000e+04   3.53000000000000000e+04   3.53000000000000000e+04   3.53000000000000000e+04
             3.53000000000000000e+04   3.53000000000000000e+04   3.53000000000000000e+04   3.53000000000000000e+04   3.53000000000000000e+04
             3.53000000000000000e+04   3.53000000000000000e+04   3.53000000000000000e+04   3.53000000000000000e+04   3.53000000000000000e+04
             3.53000000000000000e+04   3.53000000000000000e+04   3.53000000000000000e+04   3.53000000000000000e+04   3.53000000000000000e+04
             3.53000000000000000e+04   3.53000000000000000e+04   3.53000000000000000e+04   3.53000000000000000e+04   3.53000000000000000e+04
             3.53000000000000000e+04   3.53000000000000000e+04   3.53000000000000000e+04   3.53000000000000000e+04   3.53000000000000000e+04
             3.53000000000000000e+04   3.53000000000000000e+04   3.53000000000000000e+04   3.53000000000000000e+04   3.53000000000000000e+04
             3.53000000000000000e+04   3.53000000000000000e+04   3.53000000000000000e+04   3.53000000000000000e+04   3.53000000000000000e+04
             3.53000000000000000e+04   3.53000000000000000e+04   3.53000000000000000e+04   3.53000000000000000e+04   3.53000000000000000e+04
             3.53000000000000000e+04   3.53000000000000000e+04   3.53000000000000000e+04   3.53000000000000000e+04   3.53000000000000000e+04
             3.53000000000000000e+04   3.53000000000000000e+04   3.53000000000000000e+04   3.53000000000000000e+04   3.53000000000000000e+04
             3.53000000000000000e+04   3.53000000000000000e+04   3.53000000000000000e+04   3.53000000000000000e+04   3.53000000000000000e+04
             3.53000000000000000e+04   3.53000000000000000e+04   3.53000000000000000e+04   3.53000000000000000e+04   3.53000000000000000e+04
             3.53000000000000000e+04   3.53000000000000000e+04   3.53000000000000000e+04   3.53000000000000000e+04   3.53000000000000000e+04
             3.53000000000000000e+04   3.53000000000000000e+04   3.53000000000000000e+04   3.53000000000000000e+04   3.53000000000000000e+04
             3.53000000000000000e+04   3.53000000000000000e+04   3.53000000000000000e+04   3.53000000000000000e+04   3.53000000000000000e+04
             3.53000000000000000e+04   3.53000000000000000e+04   3.53000000000000000e+04   3.53000000000000000e+04   3.53000000000000000e+04
             3.53000000000000000e+04
 ETA=  178   3.55000000000000000e+04   3.55000000000000000e+04   3.55000000000000000e+04   3.55000000000000000e+04   3.55000000000000000e+04
             3.55000000000000000e+04   3.55000000000000000e+04   3.55000000000000000e+04   3.55000000000000000e+04   3.55000000000000000e+04
             3.55000000000000000e+04   3.55000000000000000e+04   3.55000000000000000e+04   3.55000000000000000e+04   3.55000000000000000e+04
             3.55000000000000000e+04   3.55000000000000000e+04   3.55000000000000000e+04   3.55000000000000000e+04   3.55000000000000000e+04
             3.55000000000000000e+04   3.55000000000000000e+04   3.55000000000000000e+04   3.55000000000000000e+04   3.55000000000000000e+04
             3.55000000000000000e+04   3.55000000000000000e+04   3.55000000000000000e+04   3.55000000000000000e+04   3.55000000000000000e+04
             3.55000000000000000e+04   3.55000000000000000e+04   3.55000000000000000e+04   3.55000000000000000e+04   3.55000000000000000e+04
             3.55000000000000000e+04   3.55000000000000000e+04   3.55000000000000000e+04   3.55000000000000000e+04   3.55000000000000000e+04
             3.55000000000000000e+04   3.55000000000000000e+04   3.55000000000000000e+04   3.55000000000000000e+04   3.55000000000000000e+04
             3.55000000000000000e+04   3.55000000000000000e+04   3.55000000000000000e+04   3.55000000000000000e+04   3.55000000000000000e+04
             3.55000000000000000e+04   3.55000000000000000e+04   3.55000000000000000e+04   3.55000000000000000e+04   3.55000000000000000e+04
             3.55000000000000000e+04   3.55000000000000000e+04   3.55000000000000000e+04   3.55000000000000000e+04   3.55000000000000000e+04
             3.55000000000000000e+04   3.55000000000000000e+04   3.55000000000000000e+04   3.55000000000000000e+04   3.55000000000000000e+04
             3.55000000000000000e+04   3.55000000000000000e+04   3.55000000000000000e+04   3.55000000000000000e+04   3.55000000000000000e+04
             3.55000000000000000e+04   3.55000000000000000e+04   3.55000000000000000e+04   3.55000000000000000e+04   3.55000000000000000e+04
             3.55000000000000000e+04   3.55000000000000000e+04   3.55000000000000000e+04   3.55000000000000000e+04   3.55000000000000000e+04
             3.55000000000000000e+04   3.55000000000000000e+04   3.55000000000000000e+04   3.55000000000000000e+04   3.55000000000000000e+04
             3.55000000000000000e+04   3.55000000000000000e+04   3.55000000000000000e+04   3.55000000000000000e+04   3.55000000000000000e+04
             3.55000000000000000e+04   3.55000000000000000e+04   3.55000000000000000e+04   3.55000000000000000e+04   3.55000000000000000e+04
             3.55000000000000000e+04   3.55000000000000000e+04   3.55000000000000000e+04   3.55000000000000000e+04   3.55000000000000000e+04
             3.55000000000000000e+04   3.55000000000000000e+04   3.55000000000000000e+04   3.55000000000000000e+04   3.55000000000000000e+04
             3.55000000000000000e+04   3.55000000000000000e+04   3.55000000000000000e+04   3.55000000000000000e+04   3.55000000000000000e+04
             3.55000000000000000e+04   3.55000000000000000e+04   3.55000000000000000e+04   3.55000000000000000e+04   3.55000000000000000e+04
             3.55000000000000000e+04   3.55000000000000000e+04   3.55000000000000000e+04   3.55000000000000000e+04   3.55000000000000000e+04
             3.55000000000000000e+04   3.55000000000000000e+04   3.55000000000000000e+04   3.55000000000000000e+04   3.55000000000000000e+04
             3.55000000000000000e+04   3.55000000000000000e+04   3.55000000000000000e+04   3.55000000000000000e+04   3.55000000000000000e+04
             3.55000000000000000e+04
 ETA=  179   3.57000000000000000e+04   3.57000000000000000e+04   3.57000000000000000e+04   3.57000000000000000e+04   3.57000000000000000e+04
             3.57000000000000000e+04   3.57000000000000000e+04   3.57000000000000000e+04   3.57000000000000000e+04   3.57000000000000000e+04
             3.57000000000000000e+04   3.57000000000000000e+04   3.57000000000000000e+04   3.57000000000000000e+04   3.57000000000000000e+04
             3.57000000000000000e+04   3.57000000000000000e+04   3.57000000000000000e+04   3.57000000000000000e+04   3.57000000000000000e+04
             3.57000000000000000e+04   3.57000000000000000e+04   3.57000000000000000e+04   3.57000000000000000e+04   3.57000000000000000e+04
             3.57000000000000000e+04   3.57000000000000000e+04   3.57000000000000000e+04   3.57000000000000000e+04   3.57000000000000000e+04
             3.57000000000000000e+04   3.57000000000000000e+04   3.57000000000000000e+04   3.57000000000000000e+04   3.57000000000000000e+04
             3.57000000000000000e+04   3.57000000000000000e+04   3.57000000000000000e+04   3.57000000000000000e+04   3.57000000000000000e+04
             3.57000000000000000e+04   3.57000000000000000e+04   3.57000000000000000e+04   3.57000000000000000e+04   3.57000000000000000e+04
             3.57000000000000000e+04   3.57000000000000000e+04   3.57000000000000000e+04   3.57000000000000000e+04   3.57000000000000000e+04
             3.57000000000000000e+04   3.57000000000000000e+04   3.57000000000000000e+04   3.57000000000000000e+04   3.57000000000000000e+04
             3.57000000000000000e+04   3.57000000000000000e+04   3.57000000000000000e+04   3.57000000000000000e+04   3.57000000000000000e+04
             3.57000000000000000e+04   3.57000000000000000e+04   3.57000000000000000e+04   3.57000000000000000e+04   3.57000000000000000e+04
             3.57000000000000000e+04   3.57000000000000000e+04   3.57000000000000000e+04   3.57000000000000000e+04   3.57000000000000000e+04
             3.57000000000000000e+04   3.57000000000000000e+04   3.57000000000000000e+04   3.57000000000000000e+04   3.57000000000000000e+04
             3.57000000000000000e+04   3.57000000000000000e+04   3.57000000000000000e+04   3.57000000000000000e+04   3.57000000000000000e+04
             3.57000000000000000e+04   3.57000000000000000e+04   3.57000000000000000e+04   3.57000000000000000e+04   3.57000000000000000e+04
             3.57000000000000000e+04   3.57000000000000000e+04   3.57000000000000000e+04   3.57000000000000000e+04   3.57000000000000000e+04
             3.57000000000000000e+04   3.57000000000000000e+04   3.57000000000000000e+04   3.57000000000000000e+04   3.57000000000000000e+04
             3.57000000000000000e+04   3.57000000000000000e+04   3.57000000000000000e+04   3.57000000000000000e+04   3.57000000000000000e+04
             3.57000000000000000e+04   3.57000000000000000e+04   3.57000000000000000e+04   3.57000000000000000e+04   3.57000000000000000e+04
             3.57000000000000000e+04   3.57000000000000000e+04   3.57000000000000000e+04   3.57000000000000000e+04   3.57000000000000000e+04
             3.57000000000000000e+04   3.57000000000000000e+04   3.57000000000000000e+04   3.57000000000000000e+04   3.57000000000000000e+04
             3.57000000000000000e+04   3.57000000000000000e+04   3.57000000000000000e+04   3.57000000000000000e+04   3.57000000000000000e+04
             3.57000000000000000e+04   3.57000000000000000e+04   3.57000000000000000e+04   3.57000000000000000e+04   3.57000000000000000e+04
             3.57000000000000000e+04   3.57000000000000000e+04   3.57000000000000000e+04   3.57000000000000000e+04   3.57000000000000000e+04
             3.57000000000000000e+04
 ETA=  180   3.59000000000000000e+04   3.59000000000000000e+04   3.59000000000000000e+04   3.59000000000000000e+04   3.59000000000000000e+04
             3.59000000000000000e+04   3.59000000000000000e+04   3.59000000000000000e+04   3.59000000000000000e+04   3.59000000000000000e+04
             3.59000000000000000e+04   3.59000000000000000e+04   3.59000000000000000e+04   3.59000000000000000e+04   3.59000000000000000e+04
             3.59000000000000000e+04   3.59000000000000000e+04   3.59000000000000000e+04   3.59000000000000000e+04   3.59000000000000000e+04
             3.59000000000000000e+04   3.59000000000000000e+04   3.59000000000000000e+04   3.59000000000000000e+04   3.59000000000000000e+04
             3.59000000000000000e+04   3.59000000000000000e+04   3.59000000000000000e+04   3.59000000000000000e+04   3.59000000000000000e+04
             3.59000000000000000e+04   3.59000000000000000e+04   3.59000000000000000e+04   3.59000000000000000e+04   3.59000000000000000e+04
             3.59000000000000000e+04   3.59000000000000000e+04   3.59000000000000000e+04   3.59000000000000000e+04   3.59000000000000000e+04
             3.59000000000000000e+04   3.59000000000000000e+04   3.59000000000000000e+04   3.59000000000000000e+04   3.59000000000000000e+04
             3.59000000000000000e+04   3.59000000000000000e+04   3.59000000000000000e+04   3.59000000000000000e+04   3.59000000000000000e+04
             3.59000000000000000e+04   3.59000000000000000e+04   3.59000000000000000e+04   3.59000000000000000e+04   3.59000000000000000e+04
             3.59000000000000000e+04   3.59000000000000000e+04   3.59000000000000000e+04   3.59000000000000000e+04   3.59000000000000000e+04
             3.59000000000000000e+04   3.59000000000000000e+04   3.59000000000000000e+04   3.59000000000000000e+04   3.59000000000000000e+04
             3.59000000000000000e+04   3.59000000000000000e+04   3.59000000000000000e+04   3.59000000000000000e+04   3.59000000000000000e+04
             3.59000000000000000e+04   3.59000000000000000e+04   3.59000000000000000e+04   3.59000000000000000e+04   3.59000000000000000e+04
             3.59000000000000000e+04   3.59000000000000000e+04   3.59000000000000000e+04   3.59000000000000000e+04   3.59000000000000000e+04
             3.59000000000000000e+04   3.59000000000000000e+04   3.59000000000000000e+04   3.59000000000000000e+04   3.59000000000000000e+04
             3.59000000000000000e+04   3.59000000000000000e+04   3.59000000000000000e+04   3.59000000000000000e+04   3.59000000000000000e+04
             3.59000000000000000e+04   3.59000000000000000e+04   3.59000000000000000e+04   3.59000000000000000e+04   3.59000000000000000e+04
             3.59000000000000000e+04   3.59000000000000000e+04   3.59000000000000000e+04   3.59000000000000000e+04   3.59000000000000000e+04
             3.59000000000000000e+04   3.59000000000000000e+04   3.59000000000000000e+04   3.59000000000000000e+04   3.59000000000000000e+04
             3.59000000000000000e+04   3.59000000000000000e+04   3.59000000000000000e+04   3.59000000000000000e+04   3.59000000000000000e+04
             3.59000000000000000e+04   3.59000000000000000e+04   3.59000000000000000e+04   3.59000000000000000e+04   3.59000000000000000e+04
             3.59000000000000000e+04   3.59000000000000000e+04   3.59000000000000000e+04   3.59000000000000000e+04   3.59000000000000000e+04
             3.59000000000000000e+04   3.59000000000000000e+04   3.59000000000000000e+04   3.59000000000000000e+04   3.59000000000000000e+04
             3.59000000000000000e+04   3.59000000000000000e+04   3.59000000000000000e+04   3.59000000000000000e+04   3.59000000000000000e+04
             3.59000000000000000e+04
 ETA=  181   3.61000000000000000e+04   3.61000000000000000e+04   3.61000000000000000e+04   3.61000000000000000e+04   3.61000000000000000e+04
             3.61000000000000000e+04   3.61000000000000000e+04   3.61000000000000000e+04   3.61000000000000000e+04   3.61000000000000000e+04
             3.61000000000000000e+04   3.61000000000000000e+04   3.61000000000000000e+04   3.61000000000000000e+04   3.61000000000000000e+04
             3.61000000000000000e+04   3.61000000000000000e+04   3.61000000000000000e+04   3.61000000000000000e+04   3.61000000000000000e+04
             3.61000000000000000e+04   3.61000000000000000e+04   3.61000000000000000e+04   3.61000000000000000e+04   3.61000000000000000e+04
             3.61000000000000000e+04   3.61000000000000000e+04   3.61000000000000000e+04   3.61000000000000000e+04   3.61000000000000000e+04
             3.61000000000000000e+04   3.61000000000000000e+04   3.61000000000000000e+04   3.61000000000000000e+04   3.61000000000000000e+04
             3.61000000000000000e+04   3.61000000000000000e+04   3.61000000000000000e+04   3.61000000000000000e+04   3.61000000000000000e+04
             3.61000000000000000e+04   3.61000000000000000e+04   3.61000000000000000e+04   3.61000000000000000e+04   3.61000000000000000e+04
             3.61000000000000000e+04   3.61000000000000000e+04   3.61000000000000000e+04   3.61000000000000000e+04   3.61000000000000000e+04
             3.61000000000000000e+04   3.61000000000000000e+04   3.61000000000000000e+04   3.61000000000000000e+04   3.61000000000000000e+04
             3.61000000000000000e+04   3.61000000000000000e+04   3.61000000000000000e+04   3.61000000000000000e+04   3.61000000000000000e+04
             3.61000000000000000e+04   3.61000000000000000e+04   3.61000000000000000e+04   3.61000000000000000e+04   3.61000000000000000e+04
             3.61000000000000000e+04   3.61000000000000000e+04   3.61000000000000000e+04   3.61000000000000000e+04   3.61000000000000000e+04
             3.61000000000000000e+04   3.61000000000000000e+04   3.61000000000000000e+04   3.61000000000000000e+04   3.61000000000000000e+04
             3.61000000000000000e+04   3.61000000000000000e+04   3.61000000000000000e+04   3.61000000000000000e+04   3.61000000000000000e+04
             3.61000000000000000e+04   3.61000000000000000e+04   3.61000000000000000e+04   3.61000000000000000e+04   3.61000000000000000e+04
             3.61000000000000000e+04   3.61000000000000000e+04   3.61000000000000000e+04   3.61000000000000000e+04   3.61000000000000000e+04
             3.61000000000000000e+04   3.61000000000000000e+04   3.61000000000000000e+04   3.61000000000000000e+04   3.61000000000000000e+04
             3.61000000000000000e+04   3.61000000000000000e+04   3.61000000000000000e+04   3.61000000000000000e+04   3.61000000000000000e+04
             3.61000000000000000e+04   3.61000000000000000e+04   3.61000000000000000e+04   3.61000000000000000e+04   3.61000000000000000e+04
             3.61000000000000000e+04   3.61000000000000000e+04   3.61000000000000000e+04   3.61000000000000000e+04   3.61000000000000000e+04
             3.61000000000000000e+04   3.61000000000000000e+04   3.61000000000000000e+04   3.61000000000000000e+04   3.61000000000000000e+04
             3.61000000000000000e+04   3.61000000000000000e+04   3.61000000000000000e+04   3.61000000000000000e+04   3.61000000000000000e+04
             3.61000000000000000e+04   3.61000000000000000e+04   3.61000000000000000e+04   3.61000000000000000e+04   3.61000000000000000e+04
             3.61000000000000000e+04   3.61000000000000000e+04   3.61000000000000000e+04   3.61000000000000000e+04   3.61000000000000000e+04
             3.61000000000000000e+04
