Ident  = #Delft3D-FLOW  .03.02 3.42.00.17790#
Commnt =                  
Runtxt = #mixed comp(50%sand/50%silt)#
         #Detailed to check bump#
         #sand 100 um + silt 25 um#
         #3.0% conc 40min dis 4500m3/s#
         #200m cell size#
         #Channel slope 1.00 deg#
         #Basin slope 0.2 deg#
         #Channel depth 100m#
         #NO MORFAC#
         #Transport layer 50 cm#
         #Underlayer height 5 cm#
         #19 hours#
Filcco = #36km_26km_W60Channel.grd#
Anglat =  0.0000000e+000
Grdang =  0.0000000e+000
Filgrd = #36km_1cellchannel_15km.enc#
MNKmax = 132 182 80
Thick  =  7.1800000e+000
          6.0000000e+000
          5.5000000e+000
          5.0000000e+000
          4.5000000e+000
          4.0000000e+000
          3.8000000e+000
          3.6000000e+000
          3.4000000e+000
          3.2000000e+000
          3.0000000e+000
          2.9000000e+000
          2.8000000e+000
          2.7000000e+000
          2.6000000e+000
          2.5000000e+000
          2.4000000e+000
          2.3000000e+000
          2.2000000e+000
          2.1000000e+000
          2.0000000e+000
          1.9000000e+000
          1.8000000e+000
          1.7000000e+000
          1.6000000e+000
          1.5000000e+000
          1.4000000e+000
          1.3000000e+000
          1.2000000e+000
          1.1000000e+000
          1.0000000e+000
          9.5000000e-001
          9.0000000e-001
          8.5000000e-001
          8.0000000e-001
          7.5000000e-001
          7.0000000e-001
          6.5000000e-001
          6.0000000e-001
          5.5000000e-001
          5.0000000e-001
          4.5000000e-001
          4.0000000e-001
          3.5000000e-001
          3.0000000e-001
          2.7000000e-001
          2.3000000e-001
          2.0000000e-001
          1.5000000e-001
          1.3000000e-001
          1.2000000e-001
          1.1000000e-001
          1.0000000e-001
          1.0000000e-001
          9.0000000e-002
          9.0000000e-002
          9.0000000e-002
          9.0000000e-002
          9.0000000e-002
          8.0000000e-002
          8.0000000e-002
          8.0000000e-002
          8.0000000e-002
          7.0000000e-002
          7.0000000e-002
          7.0000000e-002
          6.0000000e-002
          6.0000000e-002
          6.0000000e-002
          6.0000000e-002
          6.0000000e-002
          5.0000000e-002
          5.0000000e-002
          5.0000000e-002
          5.0000000e-002
          4.0000000e-002
          4.0000000e-002
          4.0000000e-002
          3.0000000e-002
          3.0000000e-002
Commnt =                  
Fildep = #gen_36_by_26km.dep#
Commnt =                  
Commnt =                 no. dry points: 0
Commnt =                 no. thin dams: 0
Commnt =                  
Itdate = #2020-02-01#
Tunit  = #M#
Tstart =  0.0000000e+000
Tstop  =  1.2300000e+003
Dt     = 0.3
Tzone  = 0
Commnt =                  
Sub1   = #    #
Sub2   = # C #
Namc1  = #Sediment vfsand     #
Namc2  = #Sediment msilt      #
Commnt =                  
Wnsvwp = #N#
Wndint = #N#
Commnt =                  
Zeta0  =  0.0000000e+000
C01    =  0.0000000e+000
          0.0000000e+000
          0.0000000e+000
          0.0000000e+000
          0.0000000e+000
          0.0000000e+000
          0.0000000e+000
          0.0000000e+000
          0.0000000e+000
          0.0000000e+000
          0.0000000e+000
          0.0000000e+000
          0.0000000e+000
          0.0000000e+000
          0.0000000e+000
          0.0000000e+000
          0.0000000e+000
          0.0000000e+000
          0.0000000e+000
          0.0000000e+000
          0.0000000e+000
          0.0000000e+000
          0.0000000e+000
          0.0000000e+000
          0.0000000e+000
          0.0000000e+000
          0.0000000e+000
          0.0000000e+000
          0.0000000e+000
          0.0000000e+000
          0.0000000e+000
          0.0000000e+000
          0.0000000e+000
          0.0000000e+000
          0.0000000e+000
          0.0000000e+000
          0.0000000e+000
          0.0000000e+000
          0.0000000e+000
          0.0000000e+000
          0.0000000e+000
          0.0000000e+000
          0.0000000e+000
          0.0000000e+000
          0.0000000e+000
          0.0000000e+000
          0.0000000e+000
          0.0000000e+000
          0.0000000e+000
          0.0000000e+000
          0.0000000e+000
          0.0000000e+000
          0.0000000e+000
          0.0000000e+000
          0.0000000e+000
          0.0000000e+000
          0.0000000e+000
          0.0000000e+000
          0.0000000e+000
          0.0000000e+000
          0.0000000e+000
          0.0000000e+000
          0.0000000e+000
          0.0000000e+000
          0.0000000e+000
          0.0000000e+000
          0.0000000e+000
          0.0000000e+000
          0.0000000e+000
          0.0000000e+000
          0.0000000e+000
          0.0000000e+000
          0.0000000e+000
          0.0000000e+000
          0.0000000e+000
          0.0000000e+000
          0.0000000e+000
          0.0000000e+000
          0.0000000e+000
          0.0000000e+000
C02    =  0.0000000e+000
          0.0000000e+000
          0.0000000e+000
          0.0000000e+000
          0.0000000e+000
          0.0000000e+000
          0.0000000e+000
          0.0000000e+000
          0.0000000e+000
          0.0000000e+000
          0.0000000e+000
          0.0000000e+000
          0.0000000e+000
          0.0000000e+000
          0.0000000e+000
          0.0000000e+000
          0.0000000e+000
          0.0000000e+000
          0.0000000e+000
          0.0000000e+000
          0.0000000e+000
          0.0000000e+000
          0.0000000e+000
          0.0000000e+000
          0.0000000e+000
          0.0000000e+000
          0.0000000e+000
          0.0000000e+000
          0.0000000e+000
          0.0000000e+000
          0.0000000e+000
          0.0000000e+000
          0.0000000e+000
          0.0000000e+000
          0.0000000e+000
          0.0000000e+000
          0.0000000e+000
          0.0000000e+000
          0.0000000e+000
          0.0000000e+000
          0.0000000e+000
          0.0000000e+000
          0.0000000e+000
          0.0000000e+000
          0.0000000e+000
          0.0000000e+000
          0.0000000e+000
          0.0000000e+000
          0.0000000e+000
          0.0000000e+000
          0.0000000e+000
          0.0000000e+000
          0.0000000e+000
          0.0000000e+000
          0.0000000e+000
          0.0000000e+000
          0.0000000e+000
          0.0000000e+000
          0.0000000e+000
          0.0000000e+000
          0.0000000e+000
          0.0000000e+000
          0.0000000e+000
          0.0000000e+000
          0.0000000e+000
          0.0000000e+000
          0.0000000e+000
          0.0000000e+000
          0.0000000e+000
          0.0000000e+000
          0.0000000e+000
          0.0000000e+000
          0.0000000e+000
          0.0000000e+000
          0.0000000e+000
          0.0000000e+000
          0.0000000e+000
          0.0000000e+000
          0.0000000e+000
          0.0000000e+000
Commnt =                  
Commnt =                 no. open boundaries: 2
Filbnd = #QChannelZdeep.bnd#
FilbcT = #discharge4500.bct#
FilbcC = #5050_15.bcc#
Rettis =  0.0000000e+000
          0.0000000e+000
Rettib =  0.0000000e+000
          0.0000000e+000
Commnt =                  
Ag     =  9.8100000e+000
Rhow   =  1.0250000e+003
Tempw  =  1.5000000e+001
Salw   =  3.1000000e+001
Wstres =  6.3000000e-004  0.0000000e+000  7.2300000e-003  1.0000000e+002  7.2300000e-003  1.0000000e+002
Rhoa   =  1.0000000e+000
Betac  =  5.0000000e-001
Equili = #N#
Tkemod = #K-epsilon   #
Ktemp  = 0
Fclou  =  0.0000000e+000
Sarea  =  0.0000000e+000
Temint = #N#
Commnt =                  
Roumet = #Z#
Ccofu  =  1.0000000e-003
Ccofv  =  1.0000000e-003
Xlo    =  0.0000000e+000
Vicouv =  1.0000000e+000
Dicouv =  1.0000000e+001
Htur2d = #N#
Vicoww =  1.0000000e-006
Dicoww =  1.0000000e-006
Irov   = 0
Filsed = #SandSilt.sed#
Filmor = #20_20.mor#
Commnt =                  
Iter   =      2
Dryflp = #YES#
Dpsopt = #MAX#
Dpuopt = #MOR#
Dryflc =  1.0000000e-001
Dco    = -9.9900000e+002
Tlfsmo =  4.5000000e+000
ThetQH =  0.0000000e+000
Forfuv = #Y#
Forfww = #N#
Sigcor = #N#
Trasol = #Cyclic-method#
Momsol = #Cyclic#
Commnt =                  
Commnt =                 no. observation points: 0
Commnt =                 no. drogues: 0
Commnt =                  
Commnt =                  
Commnt =                 no. cross sections: 0
Commnt =                  
Commnt =                 Mapfile storageflags
SMhydr = #YYYYY#     
SMderv = #YYYYYY#    
SMproc = #YYYYYYYYYY#    Salinity, temp
Commnt =                 Mapfile printflagsp
PMhydr = #YYYYYY#    
PMderv = #YYY#       
PMproc = #YYYYYYYYYY#
Commnt =                 Hisfile outputflags
SHhydr = #YYYY#      
SHderv = #YYYYY#     
SHproc = #YYYYYYYYYY#
PHhydr = #YYYYYY#    
PHderv = #YYY#       
PHproc = #YYYYYYYYYY#
PHflux = #YYYY#      
SHflux = #YYYY#      
Online = #N#
LayOut = #Y#
Vortic = #Y#
Flmap  =  0.0000000e+000 108 1.2300000e+003
Flhis  =  0.0000000e+000 108 1.2300000e+003
Flpp   =  0.0000000e+000 0  0.0000000e+000
Flrst  = 0
Commnt =                  
TraFrm = #VanRijn07.tra#
Commnt =                  
ncFormat = 4
FlNcdf = #map#
